<?xml version="1.0" encoding="UTF-8"?>

<!-- generated on 2026-03-27 11:37:25.620651 by Eclipse SUMO randomTrips.py UNKNOWN
<configuration>
    <net-file value="map.net.xml"/>
    <route-file value="routes.rou.xml"/>
    <end value="1000.0"/>
    <period value="0.5"/>
</configuration>
-->

<!-- generated on 2026-03-27T11:37:24.555577-05:00 by Eclipse SUMO duarouter 1.25.0
<duarouterConfiguration xmlns:xsi="http://www.w3.org/2001/XMLSchema-instance" xsi:noNamespaceSchemaLocation="http://sumo.dlr.de/xsd/duarouterConfiguration.xsd">

    <input>
        <net-file value="map.net.xml"/>
        <route-files value="trips.trips.xml"/>
    </input>

    <output>
        <output-file value="routes.rou.xml"/>
        <alternatives-output value="NUL"/>
    </output>

    <time>
        <begin value="0"/>
        <end value="1000.0"/>
    </time>

    <report>
        <no-warnings value="true"/>
        <ignore-errors value="true"/>
        <no-step-log value="true"/>
    </report>

</duarouterConfiguration>
-->

<routes xmlns:xsi="http://www.w3.org/2001/XMLSchema-instance" xsi:noNamespaceSchemaLocation="http://sumo.dlr.de/xsd/routes_file.xsd">
	<vType id="car" accel="2.6" decel="4.5" length="5" maxSpeed="16"/>
	<vType id="bike" accel="3.5" decel="5.0" length="2" maxSpeed="18"/>
	<vType id="bus" accel="1.2" decel="4.0" length="12" maxSpeed="12"/>
    <vehicle id="0" depart="0.00">
        <route edges="1465287756 -1465287755 1465287745 1466025429 -206957361#2 -206957361#1 -699398436 -151829694#3 -151829694#2 213710966#0 213710966#1 1443865650 236243368#9 -553958820#12 -553958820#11 -553958820#10 -553958820#9 -553958820#8 -553958820#7 -553958820#6 -553958820#5 1175827678#0 1175827678#1 -1175827678#1"/>
    </vehicle>
    <vehicle id="1" depart="0.50">
        <route edges="-213711141#0 -99990451#3 -99990451#2 -99990451#1 -99990451#0 99990455 1265532934#0 -213710792#3 -213710792#2"/>
    </vehicle>
    <vehicle id="2" depart="1.00">
        <route edges="183279537#1 -183279540 -1189086420 -183279538#4 -183279538#3 -183279538#2 -183279538#1 -183279538#0 1479804060 1256034209 1479804065#0 1479804065#1 1479804065#2 1479804065#3 1479804065#4 183279557#0 183279557#1 1479804051 1251115927#5 1251115927#6 1251115927#7 1251115927#8 1251115927#9 1254116589#0 1254116589#1 1251115920 1356896813 1201361365#0 1201361365#1 554967611 151764544 1153236079 439786052 1251115919 1251115918 553962917 1343703407#1 1343703408 123262833#0 -1170534645#1 -1170534645#0 1430182108#0 1430182108#1 1430182108#2 152357006#0 152357006#1 152356981#5 152356981#6 152356981#7"/>
    </vehicle>
    <vehicle id="3" depart="1.50">
        <route edges="74866625#2 1144606143 1144606145#0 1144606145#1 1144606145#2 678893972 678893973#0 678893973#1 1254243230#0 1254243230#1 1254243230#2 1154217318 1154217317 988680606#0 988680606#1 988680606#2 988680606#3 988680606#4 988680606#5 988680606#6 988680606#7 988680606#8 988680606#9 988680606#10 988680606#11 988680606#12 988680606#13 988680606#14 988680606#15 988680606#16 988680606#17 1145123791 1254243229#0 1254243229#1 74882746#0 74882746#1 74882746#2 74882746#3 74882746#4 74882746#5 74882746#6 74882746#7 74882746#8 1254243227#0 1254243227#1 1254243227#2 -669759919#2 -669759919#1 -669759919#0 -669759918 -74882745#5 -74882745#4 -74882745#3 -1465041771 -1465041770#0"/>
    </vehicle>
    <vehicle id="4" depart="2.00">
        <route edges="1053004142 437423590#1 1239342851 1479965455 988680588#0 988680588#1 988680588#2 988680588#3 988680588#4 988680588#5 988680588#6 1198613894#0 1198613894#1 1198613894#2 988680589 74859861#0 74859861#1 74859861#2 1430532522#0 1430532522#1 1430532522#2 1430532522#3 1430532522#4 1430532522#5 -1179680259 -1179680260"/>
    </vehicle>
    <vehicle id="5" depart="2.50">
        <route edges="-181615665#3 -181615665#2 -181615665#1 -181615665#0 1251115926#7 1251115926#8 1251115926#9 1251115926#10 789983820#0 789983820#1 789983820#2 789983820#3 789983820#4 789983818 789983819#0 789983819#1 789983819#2 789983819#3 789983819#4 1326213029 788356078#0 788356078#1 788356078#2 788356078#3 1254255313#0 1254255313#1 1254255313#2 1254255313#3 41934263#0 41934263#1 74887535#0 202516363#3 74877074#5 1254243236#0"/>
    </vehicle>
    <vehicle id="6" depart="3.00">
        <route edges="-1175309152 74866831#3 74866831#4 74866831#5 74866831#6 74866626#16 74866626#17 74866626#18 1144606145#0 1144606145#1 1144606145#2 678893972 678893973#0 678893973#1 1254243230#0 1254243230#1 1254243230#2 1154217318 1154217317 988680606#0 988680606#1 988680606#2 988680606#3 988680606#4 988680606#5 988680606#6 988680606#7 988680606#8 988680606#9 988680606#10 988680606#11 988680606#12 988680606#13 988680606#14 988680606#15 988680606#16 988680606#17 1145123791 1254243229#0 1254243229#1 74882746#0 74882746#1 74882746#2 74882746#3 74882746#4 74882746#5 74882746#6 74882746#7 74882746#8 1254243227#0 1254243227#1 1175534390 1175534391 1189086419#0 183279542 183279537#1 -183279540 -1189086420 -183279538#4 -183279538#3 -183279538#2 -183279538#1 -183279538#0 -183279532#3 -183279536#4 -183279536#3 -183279536#2"/>
    </vehicle>
    <vehicle id="7" depart="3.50">
        <route edges="-181615667#2 -181615667#1 -181615667#0 1180143958#2 1180143958#3 1180143958#4 1180143958#5 -181615665#3 -181615665#2 -181615665#1 1251115922#6 1251115922#7 1251115922#8 1251115922#9 1251115921#0 1251115921#1 1251115921#2 1251115921#3 1251115921#4 1251115921#5 1251115921#6 1251115921#7 1251115921#8 1251115921#9 1356896811 1254116587 1253277789#0 1253277789#1 1253277789#2 1253277789#3 1253277789#4 1253277789#5 1253277789#6 1253277789#7 1253277789#8 1253277789#9 -1465089573#2 -1465089573#1 -1465089573#0 1465089577"/>
    </vehicle>
    <vehicle id="8" depart="4.00">
        <route edges="250486934#1 250486934#2 1337868419#0 1337868419#1 437423586#0 437423586#1 437423591#5 437423590#0 437423590#1 74866625#0 74866625#1 74866625#2 1144606143 1144606145#0 1144606145#1 1144606145#2 678893972 678893973#0 678893973#1 1254243230#0 1254243230#1 1254243230#2 1254255319#0 1254255319#1 1254255319#2 1254255319#3 1465250346#0 1465250346#1 22858128#0 22858128#1 22858128#2 22858128#3 22858128#4 1236038603 1254240383 257412662#0 257412662#1 257412662#2 257412662#3 257412662#4 1465267571#0 1465267571#1 1465267571#2 1465267571#3 1465267571#4 1465267571#5 1465267571#6 1251115926#1 1251115926#2 1251115926#3 1251115926#4 1251115926#5 1251115926#6 1251115926#7 1251115926#8 181564033#1 181564033#2 181564033#3"/>
    </vehicle>
    <vehicle id="9" depart="4.50">
        <route edges="-74859862#7 -74859862#6 -74859862#5 -74859862#4 -74859862#3 -74859862#2 -74859862#1 766803209#7 766803209#8 766803209#9 766803209#10 766803209#11 766803209#12 766803209#13 766803209#14 -74859861#2 -74859861#1 -74859861#0 988680590#0 988680590#1 988680590#2 988680590#3 988680590#4 988680590#5 74861558#0 74861558#1 74866625#0 74866625#1 74866625#2 1144606143 1144606145#0 1144606145#1 1144606145#2 678893972 678893973#0 678893973#1 1254243230#0 1254243230#1 1254243230#2 1254255319#0 1254255319#1 1254255319#2 1254255319#3 1465250346#0 1465250346#1 22858128#0 22858128#1 22858128#2 22858128#3 22858128#4 1236038603 1254240383 257412662#0 257412662#1 257412662#2 257412662#3 257412662#4 1465267571#0 1465267571#1 1465267571#2 1465267571#3 1465267571#4 1465267571#5 1465267571#6 1465267571#7 1251115921#0 1251115921#1 1251115921#2 1251115921#3 1251115921#4 1251115921#5 1251115921#6 1251115921#7 1251115921#8 1251115921#9 1356896811 553958816 1201361365#0 1201361365#1 554967611 151764544 1153236079 439786052 1251115919 1251115918 553962917 1343703407#1 1343703408 123262833#0 -1170534645#1 -1170534645#0 1430182108#0 1430182108#1 1430182108#2 152357006#0 152357006#1 152356981#5 152356981#6 -152356981#6"/>
    </vehicle>
    <vehicle id="10" depart="5.00">
        <route edges="782742225#0 782742225#1 782742225#2 782742225#3 74866626#11 74866626#12 74866626#13 74866626#14 74866626#15 74866626#16 74866626#17 74866626#18 1144606145#0 1144606145#1 1144606145#2 678893972 678893973#0 678893973#1 1254243230#0 1254243230#1 1254243230#2 1154217318 1154217317 988680606#0 988680606#1 988680606#2 988680606#3 988680606#4 988680606#5 988680606#6 988680606#7 988680606#8 988680606#9 988680606#10 988680606#11 988680606#12 988680606#13 988680606#14 988680606#15 988680606#16 988680606#17 1145123791 74882735#0 74882735#1 74882735#2 74882735#3 -74882735#3 -74882735#2 -74882735#1 -74882735#0"/>
    </vehicle>
    <vehicle id="11" depart="5.50">
        <route edges="-1430532522#2 -1430532522#1 -1430532522#0 -74859861#2 -74859861#1 -74859861#0 988680590#0 988680590#1 988680590#2 988680590#3 988680590#4 988680590#5 74861558#0 74861558#1 74866625#0 74866625#1 74866625#2 1144606143 1144606145#0 1144606145#1 1144606145#2 678893972 678893973#0 678893973#1 1254243230#0 1254243230#1 1254243230#2 1254255319#0 1254255319#1 1254255319#2 1254255319#3 1465250346#0 1465250346#1 22858128#0 22858128#1 22858128#2 22858128#3 22858128#4 1236038603 1254240383 257412662#0 257412662#1 257412662#2 257412662#3 257412662#4 1465267571#0 1465267571#1 1465267571#2 1465267571#3 1465267571#4 1465267571#5 1465267571#6 1465267571#7 1251115921#0 1251115921#1 1251115921#2 1251115921#3 1251115921#4 1251115921#5 1251115921#6 1251115921#7 1251115921#8 1251115921#9 1356896811 553958816 1201361365#0 1201361365#1 652555780 1465089572#3 1465089572#4 1465089575#0 1465089575#1 1465089575#2 -1465089587"/>
    </vehicle>
    <vehicle id="12" depart="6.00">
        <route edges="553958820#2 -553958820#2 -553958820#1 -553958820#0 -1465077718 1254116589#1 439786074 1363010953#0 1363010953#1 1363010953#2 1363010953#3 1363010953#4 1363010953#5 1356896815#0 1356896815#1 1356896815#2 1356896815#3 1356896815#4 1356896815#5 1356896815#6 1465247736#0 1465247736#1 1465247737#0 1465247737#1"/>
    </vehicle>
    <vehicle id="13" depart="6.50">
        <route edges="257412662#2 257412662#3 257412662#4 1465267571#0 1465267571#1 1465267571#2 1465267571#3 1465267571#4 1465267571#5 1465267571#6 1465267571#7 1251115921#0 1251115921#1 1251115921#2 1251115921#3 1251115921#4 1251115921#5 1251115921#6 1251115921#7 1251115921#8 1251115921#9 1356896811 1254116587 1253277789#0 1253277789#1 1253277789#2 1253277789#3 1253277789#4 1253277789#5 1253277789#6 1253277789#7 1253277789#8 1253277789#9 1253277789#10 1253277789#11 183255900#0 183255900#1 1189082076 1175831825 183279570#0 183279570#1 183279570#2 183279584#2 183279544#0"/>
    </vehicle>
    <vehicle id="14" depart="7.00">
        <route edges="1259590640#1 -1259590640#1 -1259590640#0 -406783613 123262838#0 123262838#1 123262838#2 1251115930 1237295107 1237295106 1296056101#0 1296056101#1 -685943475 99990451#0 99990451#1 928899898#0 -928899902#3 -928899902#2 -928899902#1 928899899#0"/>
    </vehicle>
    <vehicle id="15" depart="7.50">
        <route edges="-74882744#0 1465038356 -1465038356 74882744#0 74882744#1 -669759919#2 1254255322#2 1254255322#3 1177210704#0 1177210704#1 1177210704#2 1177210704#3 1177210704#4 1177210704#5 1177210704#6 1177210704#7 1177210704#8 1177210704#9 1254255320#0 1254255320#1 1254255320#2 1304960347#0 1304960347#1 1304960347#2 1304960347#3 22858210#0 22858210#1 22858210#2 22858210#3 22858210#4 22858210#5 22858210#6 22858210#7 22858210#8 22858210#9 22858210#10 22858210#11 1293647946 1254255319#0 1254255319#1 1254255319#2 74887539#0 -1334181796 1367632010 1367632011 213710972 1367632012#0 1367632012#1"/>
    </vehicle>
    <vehicle id="16" depart="8.00">
        <route edges="437913322#1 437913322#2 437913322#3 1144606145#2 678893972 678893973#0 678893973#1 1254243230#0 1254243230#1 1254243230#2 1254255319#0 1254255319#1 1254255319#2 1254255319#3 1465250346#0 1465250346#1 22858128#0 22858128#1 22858128#2 22858128#3 22858128#4 1236038603 1254240383 257412662#0 257412662#1 257412662#2 257412662#3 257412662#4 1465267571#0 1465267571#1 181615660#3 181615660#4 181615660#5 181615660#6 181615660#7 1465273613#0 1465273613#1 1465273613#2"/>
    </vehicle>
    <vehicle id="17" depart="8.50">
        <route edges="181218219#7 766592818#0 766592818#1 766592818#2 766592818#3 766592818#4 766592818#5 766592818#6 766592818#7 766592818#8 22858683#9 22858683#10 22858683#11 22858683#12 988680590#0 988680590#1 988680590#2 988680590#3 988680590#4 988680590#5 74861558#0 74861558#1 74866625#0 74866625#1 74866625#2 1144606143 1144606145#0 1144606145#1 1144606145#2 678893972 678893973#0 678893973#1 1254243230#0 1254243230#1 1254243230#2 1254255319#0 1254255319#1 1254255319#2 1254255319#3 1465250346#0 1465250346#1 22858128#0 22858128#1 22858128#2 22858128#3 22858128#4 1236038603 1254240383 257412662#0 257412662#1 257412662#2 257412662#3 257412662#4 1465267571#0 1465267571#1 1465267571#2 1465267571#3 1465267571#4 1465267571#5 1465267571#6 1251115926#1 1251115926#2 1251115926#3 1251115926#4 1251115926#5 1251115926#6 181615665#0 181615665#1 181615665#2 181615665#3 1180143959#0 1180143959#1 181615649#0 181615649#1 181615649#2 181615643#0 181615643#1 376038586 1000546511#0 1192598478#2 1192598478#3 -1192598478#3 -1192598478#2"/>
    </vehicle>
    <vehicle id="18" depart="9.00">
        <route edges="-183279538#4 -183279538#3 -183279538#2 -183279538#1 -183279538#0 1479804060 1256034209 1479804065#0 1479804065#1 1479804065#2 1479804065#3 1479804065#4 1479804065#5 1479804065#6 1465080473 1465080472#0 1465080472#1 1465080472#2 1465080472#3 1251115927#3 -1465089573#3 1253277789#10 1253277789#11 183255900#0 183255900#1 183255900#2 183255900#3 -685955855"/>
    </vehicle>
    <vehicle id="19" depart="9.50">
        <route edges="-1331553721 1331553721 1078157896#6 1078157896#7 -553958820#13 -553958820#12 -553958820#11 -553958820#10 -553958820#9 -553958820#8 -553958820#7 -553958820#6 -553958820#5 -553958820#4 -553958820#3 -553958820#2 -553958820#1 -553958820#0 -1465077718 1254116589#1 1251115920 1356896813 1201361365#0 1201361365#1 554967611 151764544 1153236079 439786052 1251115919 1251115918 553962915#0 553962915#1 553962915#2 553962915#3 -406783613 -1170532821#1 -1170532821#0 1175234907#0 1175234907#1 1175234907#2 1175234907#3 1175234907#4 1175234907#5 236244963#0 236244963#1 236244963#2 236244963#3 236244963#4 213710807#0 -213710887"/>
    </vehicle>
    <vehicle id="20" depart="10.00">
        <route edges="-1465016084#2 -1465016084#1 -1465016084#0 250486925#2 250486934#0 250486934#1 250486934#2 1337868419#0 1337868419#1 437423586#0 437423586#1 437423591#5 437423590#0 437423590#1 74866625#0 74866625#1 74866625#2 1144606143 1144606145#0 1144606145#1 1144606145#2 678893972 678893973#0 678893973#1 1254243230#0 1254243230#1 1254243230#2 1254255319#0 1254255319#1 1254255319#2 1254255319#3 1465250346#0 1465250346#1 22858128#0 22858128#1 22858128#2 22858128#3 22858128#4 1236038603 1254240383 257412662#0 257412662#1 257412662#2 257412662#3 257412662#4 1465267571#0 1465267571#1 1465267571#2 1465267571#3 1465267571#4 1465267571#5 1465267571#6 1465267571#7 1251115921#0 1251115921#1 1251115921#2 1251115921#3 1251115921#4 1251115921#5 1251115921#6 1251115921#7 1251115921#8 1251115921#9 1356896811 553958816 1201361365#0 1201361365#1 554967611 151764544 1153236079 439786052 1251115919 1251115918 553962917 1343703407#1 1343703408 123262833#0 123262833#1 123262833#2 1343704868 1308998080#2 1308998080#3 -476002966#2 -476002966#1 -476002966#0"/>
    </vehicle>
    <vehicle id="21" depart="10.50">
        <route edges="1465279301#0 1465279302 1465279301#2 -699528504#2 -699528504#1 -699528504#0 1078157896#12 1078157896#13 1116245210 939602314#0 939602314#1 939602314#2 939602314#3 151829692#10 1175030431 257412662#3 257412662#4 1465267571#0 1465267571#1 1465267571#2 1465267571#3 1465267571#4 1465267571#5 1465267571#6 1251115926#1 1251115926#2 1251115926#3 1251115926#4 1251115926#5 1251115926#6 1251115926#7 1251115926#8 1251115926#9 1251115926#10 1474236996 1252274176#0 1252274176#1 202516649 1235468745#0 1235468745#1 1252274172 1252274173 1235468733 1252274165 202516655 1252274162#0 -787899242"/>
    </vehicle>
    <vehicle id="22" depart="11.00">
        <route edges="-74877076#9 74877076#9 74877076#10 74877076#11 74877076#12 74887543#1 74887543#2 74887543#3 74887543#4 74887543#5 1367632009 1465250346#0 1465250346#1 22858128#0 22858128#1 22858128#2 22858128#3 22858128#4 1236038603 1254240383 257412662#0 257412662#1 257412662#2 257412662#3 257412662#4 1465267571#0 1465267571#1 1465267571#2 1465267571#3 1465267571#4 1465267571#5 1465267571#6 1465267571#7 1251115921#0 1251115921#1 1251115921#2 1251115921#3 1251115921#4 1251115921#5 1251115921#6 1251115921#7 1251115921#8 1251115921#9 1356896811 1254116587 1253277789#0 1253277789#1 1253277789#2 1253277789#3 1253277789#4 183279590#0 183279590#1 -183279590#1"/>
    </vehicle>
    <vehicle id="23" depart="11.50">
        <route edges="-213711039#2 -213711039#1 -213711039#0 -213711089 -1465267572 151829692#7 151829692#8 151829692#9 151829692#10 151829692#11 151829692#12 151829692#13 151829692#14 151829692#15 1251115925#0 1254240385#1 74887536#0 74887547#2"/>
    </vehicle>
    <vehicle id="24" depart="12.00">
        <route edges="1466025427 -1465287755 1465287745 1466025429 -206957361#2 -206957361#1 -699398436 151829694#4 151829694#5 151829694#6 151829694#7 939602314#0 939602314#1 939602314#2 939602314#3 151829692#10 1175030431 257412662#3 257412662#4 213711089 213711039#0 -213711082#4 1465264654#0 1465264654#1 1465264654#2 1465264655"/>
    </vehicle>
    <vehicle id="25" depart="12.50">
        <route edges="-1481732962 -782742227#2 -782742227#1 -782742227#0 74866626#1 74866626#2 74866626#3 74866626#4 74866626#5 74866626#6 74866626#7 74866626#8 74866626#9 74866626#10 74866626#11 74866626#12 74866626#13 74866626#14 74866626#15 74866626#16 74866626#17 74866626#18 1144606145#0 1144606145#1 1144606145#2 678893972 678893973#0 678893973#1 1254243230#0 1254243230#1 1254243230#2 1154217318 1154217317 988680606#0 988680606#1 988680606#2 988680606#3 988680606#4 988680606#5 988680606#6 988680606#7 988680606#8 988680606#9 988680606#10 988680606#11 988680606#12 988680606#13 988680606#14 988680606#15 988680606#16 988680606#17 1145123791 1254243229#0 1254243229#1 74882746#0 74882746#1 74882746#2 74882746#3 74882746#4 74882746#5 74882746#6 74882746#7 74882746#8 1254243227#0 1254243227#1 1175534390 1175534391 1189086419#0 183279542 183279537#1 -183279540 -1189086420 -183279538#4 -183279538#3 -183279538#2 -183279538#1 -183279538#0 -183279532#3 -183279536#4 -183279536#3 -183279536#2 -183279536#1 -183279536#0 183279539#3"/>
    </vehicle>
    <vehicle id="26" depart="13.00">
        <route edges="-1469466491#0 -1469466486#1 -1469466486#0 181218224#2 181218224#3 181218224#4 181218224#5 988680605#1 988680605#2 988680605#3 988680605#4 988680605#5 1253929961#0 1253929961#1 1253929961#2 1253929961#3 1253929961#4 1253929961#5 1253929961#6 22858683#0 22858683#1 22858683#2 22858683#3 22858683#4 22858683#5 22858683#6 22858683#7 22858683#8 22858683#9 22858683#10 22858683#11 22858683#12 988680590#0 988680590#1 988680590#2 988680590#3 988680590#4 988680590#5 74861558#0 74861558#1 74866625#0 74866625#1 74866625#2 1144606143 1144606145#0 1144606145#1 1144606145#2 678893972 678893973#0 678893973#1 1254243230#0 1254243230#1 1254243230#2 1254255319#0 1254255319#1 1254255319#2 1254255319#3 1465250346#0 1465250346#1 22858128#0 22858128#1 22858128#2 22858128#3 22858128#4 1236038603 1254240383 257412662#0 257412662#1 257412662#2 257412662#3 257412662#4 1465267571#0 1465267571#1 1465267571#2 1465267571#3 1465267571#4 1465267571#5 1465267571#6 1251115926#1 1251115926#2 1251115926#3 1251115926#4 1251115926#5 1251115926#6 181615665#0 181615665#1 181615665#2 181615665#3 1180143959#0 1180143959#1 181615649#0 181615649#1 181615649#2 181615643#0 181615643#1 376038586 1000546511#0"/>
    </vehicle>
    <vehicle id="27" depart="13.50">
        <route edges="988680605#1 988680605#2 988680605#3 988680605#4 988680605#5 1253929961#0 1253929961#1 1253929961#2 1253929961#3 1253929961#4 1253929961#5 1253929961#6 22858683#0 22858683#1 22858683#2 22858683#3 22858683#4 22858683#5 22858683#6 22858683#7 22858683#8 22858683#9 22858683#10 22858683#11 22858683#12 988680590#0 988680590#1 988680590#2 988680590#3 988680590#4 988680590#5 74861558#0 74861558#1 74866625#0 74866625#1 74866625#2 1144606143 1144606145#0 1144606145#1 1144606145#2 678893972 678893973#0 678893973#1 1254243230#0 1254243230#1 1254243230#2 1254255319#0 1254255319#1 1254255319#2 1254255319#3 1465250346#0 1465250346#1 22858128#0 22858128#1 22858128#2 22858128#3 22858128#4 1236038603 1254240383 257412662#0 257412662#1 257412662#2 257412662#3 257412662#4 1465267571#0 1465267571#1 1465267571#2 1465267571#3 1465267571#4 1465267571#5 1465267571#6 1465267571#7 1251115921#0 1251115921#1 1251115921#2 1251115921#3 -1330632234#0 1356896815#1 1356896815#2 1466470900"/>
    </vehicle>
    <vehicle id="28" depart="14.00">
        <route edges="1329051157 1329051156 1189350189 1179680259 -1430532522#5 -1430532522#4 -1430532522#3 -1430532522#2 -1430532522#1 -1430532522#0 -74859861#2 -74859861#1 -74859861#0 988680590#0 988680590#1 988680590#2 988680590#3 988680590#4 988680590#5 74861558#0 74861558#1 74866625#0 74866625#1 74866625#2 1144606143 1144606145#0 1144606145#1 1144606145#2 678893972 678893973#0 678893973#1 1254243230#0 1254243230#1 1254243230#2 1254255319#0 1254255319#1 1254255319#2 1254255319#3 1465250346#0 1465250346#1 22858128#0 22858128#1 22858128#2 22858128#3 22858128#4 1236038603 1254240383 257412662#0 257412662#1 257412662#2 257412662#3 257412662#4 1465267571#0 1465267571#1 1465267571#2 1465267571#3 1465267571#4 1465267571#5 1465267571#6 1465267571#7 1251115921#0 1251115921#1 1251115921#2 1251115921#3 1251115921#4 1251115921#5 1251115921#6 1251115921#7 1251115921#8 1251115921#9 1356896811 553958816 1201361365#0 1201361365#1 554967611 151764544 1153236079 439786052 1251115919 1265532934#0 1265532934#1 1265532934#2 1265532934#3 1265532934#4 1265532934#5 1170534646#0 1170534646#1 -152356978#8 -152356978#7 -152356978#6 -152356978#5 -152356978#4 -152357000#1 -152357010#6 -152357010#5 152357010#5"/>
    </vehicle>
    <vehicle id="29" depart="14.50">
        <route edges="476003248#1 476003248#2 476003248#3 476003248#4 1465293851 152356982#0 152356995 -152356981#3 -152356981#2 152357007#0 152357007#1 1430182108#2 1430182108#3 152356980#0 152356980#1 152356980#2 -1259590638 -376930604#7 -376930604#6 -376930604#5 -376930604#4 -376930604#3 213711091#0 213711091#1 213711091#2 213711091#3"/>
    </vehicle>
    <vehicle id="30" depart="15.00">
        <route edges="-183279542 -1189086419#0 -1175534391 -1175534390 1254243227#2 -669759919#2 1254255322#2 1254255322#3 1177210704#0 1177210704#1 1177210704#2 1177210704#3 1177210704#4 1177210704#5 1177210704#6 1177210704#7 1177210704#8 1177210704#9 1254255320#0 1472462975#1 1472462975#2 -417318172#1 -417318172#0 1192555686 74877063#0 74877063#1 74877063#2 791360127#0 791360127#1 791360127#2 181218219#0 181218219#1 181218219#2 181218219#3 181218219#4 181218219#5 181218219#6 74877064#1 74877064#2 74877064#3 74877064#4 1253929961#1 1253929961#2 -986413523 988068739#9 988068739#10 988068739#11 988068739#12 988068739#13 988068739#14 988068739#15 988068739#16 988068739#17 1187582460#0 1187582460#1 1187582462 -1187582461"/>
    </vehicle>
    <vehicle id="31" depart="15.50">
        <route edges="-553958820#6 553958820#6 553958820#7 553958820#8 553958820#9 553958820#10 553958820#11 553958820#12 553958820#13 1078157896#8 1078157896#9 1078157896#10 1078157896#11 1078157896#12 1078157896#13 1116245210 939602314#0 -1123830600#1 -1123830600#0 -1123830601 981839517#0 981839517#1 981839517#2 981839517#3 981839517#4 1386558597 1386558595#0 1386558595#1 1386558595#2 1386558595#3 1254255317 74861562#0 74861562#1 1254255318#0 1254255318#1 678893974 678893975#0 678893975#1 678893975#2 782723757 1144606142#0 1144606142#1 -782742226#0 -74866831#6 -74866831#5 -74866831#4 -74866831#3 -74866831#2 -74866831#1 -437913326#1"/>
    </vehicle>
    <vehicle id="32" depart="16.00">
        <route edges="-181615646 1465089582#1 1465089585 1465089581#0 1465089581#1 1465089581#2 1465089581#3 1465089576 1465089573#0 1465089573#1 1465089573#2 1465089573#3 1251115927#4 1251115927#5 1251115927#6 1251115927#7 1251115927#8 1465077717 553958820#1 553958820#2 553958820#3 553958820#4 553958820#5 553958820#6 553958820#7 553958820#8 553958820#9 553958820#10 553958820#11 553958820#12 236243368#10 236243368#11 236243368#12 236243368#13 236243368#14 236243368#15 236243368#16 236243368#17 236243368#18 236243368#19 1254243227#0 1254255321 1177210704#0 1177210704#1 1177210704#2 1177210704#3 1177210704#4 1177210704#5 1177210704#6 1177210704#7 1177210704#8 1177210704#9 1254255320#0 1472462975#1 1472462975#2 -417318172#1 -417318172#0 1192555686 74877063#0 74877063#1 74877063#2 791360127#0 791360127#1 791360127#2 181218219#0 181218219#1 181218219#2 766808821#0 766592818#6 766592818#7"/>
    </vehicle>
    <vehicle id="33" depart="16.50">
        <route edges="74859862#8 74859862#9 74859862#10 1430532522#5 74860286#0 74860286#1 74860286#2 74860286#3 74860286#4 988982710 22858537#0 74864968#3 -74861755#7 -74861755#6 -74861755#5 -74861755#4 -74861755#3 -74861755#2 -74861755#1"/>
    </vehicle>
    <vehicle id="34" depart="17.00">
        <route edges="1467267938#0 -1467267937#1 -1467267937#0 -227895913#0 -1467267940 -1465250348#1 -1465250348#0 22858128#0 22858128#1 22858128#2 22858128#3 22858128#4 1236038603 1254240383 257412662#0 257412662#1 257412662#2 257412662#3 257412662#4 1465267571#0 1465267571#1 181615660#3 181615660#4 181615660#5 181615660#6 181615669#0 181615669#1 181615669#2 181615669#3 -213711113#2 -213711113#1 -213711113#0 -1175829617#0 1081153291"/>
    </vehicle>
    <vehicle id="35" depart="17.50">
        <route edges="74877076#5 74877076#6 22863277#0 22863277#1 22863277#2 22863277#3 22863277#4 22863277#5 22863277#6 22863277#7 22863277#8 22863277#9 22863277#10 22863277#11 -41934268#1 1190345481#0"/>
    </vehicle>
    <vehicle id="36" depart="18.00">
        <route edges="-213710972 -1367632011 -1367632010 74887543#5 1367632009 1465250346#0 1465250346#1 22858128#0 22858128#1 22858128#2 22858128#3 22858128#4 1236038602 1252274174#0 1252274174#1 1252274174#2 788356078#0 -1252274163 376038571#0 376038571#1 376038571#2 376038570 101492710#0 101492710#1 101492710#2 181564045#0 181564045#1 181564045#2 181564046#9 215575622#0 -215575622#0"/>
    </vehicle>
    <vehicle id="37" depart="18.50">
        <route edges="1330632236#1 1330632236#2 -1460482641 1330632235#9 -1330632234#1 -1330632234#0 1356896815#1 1356896815#2 1356896815#3 1356896815#4 1356896815#5 1356896815#6 1356896815#7 1356896815#8 1356896815#9 151829692#0 151829692#1 151829692#2 151829692#3 151829692#4 151829692#5 151829692#6 151829692#7 151829692#8 151829692#9 151829692#10 151829692#11 151829692#12 151829692#13 151829692#14 151829692#15 1251115925#0 1254240385#1 74887536#0 74887536#1 74887536#2 74887536#3 74887536#4 74887536#5 74887536#6 74878970#0 74878970#1 74878970#2 -202542395#3 437425393#0 437425393#1 437425393#2 437425393#3 -437425393#3"/>
    </vehicle>
    <vehicle id="38" depart="19.00">
        <route edges="1430533766#0 1430533766#1 1430533766#2 1430533766#3 177566553#5 177566553#6 177566553#7 177566553#8 1254116588 553962920 1251115928 123262808 123262812 439786063 1201361364 1356896812#0 1356896812#1 1254116589#1 439786074 1363010953#0 1363010953#1 1363010953#2 1363010953#3 1363010953#4 1363010953#5 1356896815#0 1356896815#1 1356896815#2 1356896815#3 1356896815#4 1356896815#5 1356896815#6 1356896815#7 1356896815#8 1356896815#9 151829692#0 151829692#1 151829692#2 151829692#3 151829692#4 151829692#5 151829692#6 151829692#7 151829692#8 151829692#9 151829692#10 151829692#11 151829692#12 151829692#13 151829692#14 151829692#15 1251115925#0 1254240385#1 74887536#0 74887536#1 74887536#2 74887536#3 74887536#4 74887536#5 74887536#6 74878970#0 74878970#1 74878970#2 74878970#3 74878970#4 74878970#5 74878970#6 74878970#7 1154217317 1254255317 74861562#0 74861562#1 1254255318#0 1254255318#1 678893974 678893975#0 678893975#1 678893975#2 782723757 1144606142#0 1144606142#1 1144606142#2 1144606142#3 1144606142#4 1144606142#5 1144606142#6 74866820#1 74866820#2 74866820#3 74866820#4 74866820#5 74866820#6 74866820#7 74866820#8 74866820#9 74866820#10 74866820#11 74866820#12 74866820#13 74866820#14 74866820#15 74866820#16"/>
    </vehicle>
    <vehicle id="39" depart="19.50">
        <route edges="-787018901#2 787018901#2 -787018902 -161271299#1 988680588#2 988680588#3 988680588#4 988680588#5 988680588#6 1198613894#0 1198613894#1 1198613894#2 791360127#0 791360127#1 791360127#2 181218219#0 181218219#1 181218219#2 181218219#3 181218219#4 181218219#5 181218219#6 74877064#1 74877064#2 74877064#3 74877064#4 1253929961#1 1253929961#2 -986413523 988068739#9 988068739#10 988068739#11 988068739#12 988068739#13 988068739#14 988068739#15 988068739#16 988068739#17 988068739#18 988068739#19 181218224#5 988680605#1 988680605#2 -203595594#8 -203595594#7 -203595594#6 -203595594#5 -203595594#4 -203595594#3"/>
    </vehicle>
    <vehicle id="40" depart="20.00">
        <route edges="99837997#0 99837997#1 1343703406 1343703405#0 1131759264#0 1251115929 554967615 1251115928 123262808 123262812 439786063 1201361364 1356896812#0 1356896812#1 1254116589#1 439786074 1363010953#0 1363010953#1 1363010953#2 1363010953#3 1363010953#4 1363010953#5 1356896815#0 1356896815#1 1356896815#2 1356896815#3 1356896815#4 1356896815#5 1356896815#6 1356896815#7 1356896815#8 1356896815#9 151829692#0 151829692#1 151829692#2 151829692#3 151829692#4 151829692#5 151829692#6 151829692#7 151829692#8 151829692#9 151829692#10 151829692#11 151829692#12 151829692#13 151829692#14 151829692#15 1251115925#0 1254240385#1 74887536#0 74887536#1 74887536#2 74887536#3 74887536#4 74887536#5 74887536#6 74878970#0 74878970#1 74878970#2 74878970#3 -988058974#1 1254255319#1"/>
    </vehicle>
    <vehicle id="41" depart="20.50">