<?xml version="1.0" encoding="UTF-8"?>

<!-- generated on 2026-03-27T11:59:46.147819-05:00 by Eclipse SUMO polyconvert 1.25.0
<polyconvertConfiguration xmlns:xsi="http://www.w3.org/2001/XMLSchema-instance" xsi:noNamespaceSchemaLocation="http://sumo.dlr.de/xsd/polyconvertConfiguration.xsd">

    <input>
        <osm-files value="map.osm"/>
    </input>

    <output>
        <output-file value="map.poly.xml"/>
    </output>

    <projection>
        <proj.scale value="1.00000"/>
        <proj.utm value="true"/>
        <proj.plain-geo value="true"/>
    </projection>

</polyconvertConfiguration>
-->

<additional xmlns:xsi="http://www.w3.org/2001/XMLSchema-instance" xsi:noNamespaceSchemaLocation="http://sumo.dlr.de/xsd/additional_file.xsd">
    <poly id="1008059702" type="residential" color="235,235,227" fill="1" layer="-3.000000" geo="1" shape="72.801998,19.140522 72.802022,19.141122 72.802053,19.141427 72.802174,19.141633 72.802698,19.141978 72.803036,19.142358 72.803137,19.142600 72.803284,19.142988 72.803253,19.143318 72.803478,19.143618 72.803752,19.144327 72.803937,19.144740 72.804141,19.145479 72.804477,19.146182 72.804848,19.147360 72.806307,19.149607 72.807041,19.150485 72.808606,19.152030 72.810041,19.153065 72.811127,19.154168 72.812841,19.155708 72.813871,19.156761 72.814333,19.157242 72.814700,19.157654 72.815302,19.157906 72.815914,19.158413 72.816622,19.158717 72.817449,19.158618 72.818038,19.158467 72.818648,19.158114 72.819270,19.157405 72.819689,19.156452 72.820032,19.155520 72.820180,19.154417 72.820225,19.153077 72.820342,19.151867 72.820645,19.151149 72.821010,19.150612 72.821224,19.150075 72.821573,19.149816 72.821988,19.149470 72.822523,19.149173 72.822641,19.148757 72.823059,19.148930 72.823673,19.148713 72.820732,19.145244 72.819422,19.143841 72.817999,19.142639 72.816360,19.141110 72.814775,19.142634 72.813765,19.141957 72.815061,19.140331 72.815823,19.139024 72.815194,19.138684 72.814738,19.138423 72.814880,19.138251 72.814980,19.138111 72.815250,19.137733 72.816168,19.138152 72.816306,19.137931 72.816519,19.137590 72.816587,19.137478 72.817015,19.136669 72.817223,19.136253 72.817145,19.135267 72.817076,19.134900 72.817059,19.134798 72.817039,19.134526 72.817015,19.134197 72.817114,19.131923 72.817117,19.131855 72.817126,19.131656 72.817161,19.131612 72.817179,19.130679 72.817179,19.129613 72.817580,19.128918 72.817410,19.128742 72.816892,19.128428 72.816465,19.127801 72.815907,19.126981 72.815253,19.126581 72.814891,19.127547 72.814184,19.128815 72.813308,19.129856 72.812712,19.130839 72.811922,19.131690 72.811128,19.132719 72.810404,19.133983 72.809296,19.135184 72.808206,19.136146 72.807281,19.136935 72.806315,19.137837 72.805243,19.138593 72.804083,19.139437 72.801998,19.140522"/>
    <poly id="1008059703" type="residential" color="235,235,227" fill="1" layer="-3.00" geo="1" shape="72.835906,19.144324 72.835732,19.144023 72.835694,19.143463 72.835785,19.143250 72.835824,19.143136 72.835926,19.142870 72.835952,19.142813 72.836739,19.142861 72.836657,19.143067 72.836656,19.144322 72.835906,19.144324"/>
    <poly id="1008059704" type="residential" color="235,235,227" fill="1" layer="-3.00" geo="1" shape="72.836791,19.142498 72.835995,19.142401 72.835665,19.142325 72.835721,19.141943 72.835890,19.141770 72.836137,19.141636 72.836729,19.141552 72.836992,19.141501 72.836791,19.142498"/>
    <poly id="1008059705" type="residential" color="235,235,227" fill="1" layer="-3.00" geo="1" shape="72.833916,19.142407 72.833904,19.141829 72.835186,19.141642 72.835223,19.142398 72.833916,19.142407"/>
    <poly id="1008059706" type="residential" color="235,235,227" fill="1" layer="-3.00" geo="1" shape="72.834232,19.142439 72.834150,19.143329 72.833789,19.143891 72.834169,19.145418 72.834238,19.145936 72.835195,19.146009 72.835195,19.145437 72.835281,19.144948 72.835595,19.144613 72.835904,19.144368 72.835732,19.144023 72.835746,19.143753 72.835694,19.143463 72.835785,19.143250 72.835824,19.143136 72.835926,19.142870 72.835952,19.142813 72.835289,19.142489 72.834232,19.142439"/>
    <poly id="1008059707" type="residential" color="235,235,227" fill="1" layer="-3.00" geo="1" shape="72.836682,19.144890 72.836656,19.144322 72.836063,19.144369 72.835581,19.144643 72.835398,19.144815 72.835256,19.145412 72.835230,19.146060 72.835859,19.146091 72.835893,19.145381 72.836244,19.145262 72.836274,19.145057 72.836682,19.144890"/>
    <poly id="1008059708" type="residential" color="235,235,227" fill="1" layer="-3.00" geo="1" shape="72.833077,19.143900 72.833731,19.143752 72.833945,19.143338 72.834043,19.143026 72.834062,19.142536 72.833819,19.142426 72.833779,19.141859 72.832852,19.141934 72.832796,19.142937 72.832895,19.143370 72.832942,19.143527 72.833077,19.143900"/>
    <poly id="1008059709" type="residential" color="235,235,227" fill="1" layer="-3.00" geo="1" shape="72.831809,19.145743 72.831859,19.145152 72.832030,19.145124 72.832058,19.144879 72.832388,19.144612 72.832531,19.144508 72.832857,19.144223 72.833573,19.143916 72.833838,19.144674 72.833757,19.144984 72.833761,19.145195 72.833677,19.145588 72.833537,19.145863 72.831809,19.145743"/>
    <poly id="1008059710" type="building" color="255,230,230" fill="1" layer="-1.00" geo="1" shape="72.834326,19.151086 72.834333,19.150983 72.834411,19.150976 72.834421,19.151093 72.834326,19.151086"/>
    <poly id="1008059711" type="building" color="255,230,230" fill="1" layer="-1.00" geo="1" shape="72.833863,19.146179 72.833868,19.146128 72.834190,19.146142 72.834171,19.146197 72.833863,19.146179"/>
    <poly id="1008059712" type="school" color="237,199,199" fill="1" layer="-2.00" geo="1" shape="72.830013,19.147440 72.829955,19.146937 72.830461,19.146903 72.830497,19.147407 72.830013,19.147440"/>
    <poly id="1008059713" type="building" color="255,230,230" fill="1" layer="-1.00" geo="1" shape="72.834341,19.146312 72.834361,19.146176 72.834509,19.146201 72.834463,19.146339 72.834341,19.146312"/>
    <poly id="1008059714" type="building" color="255,230,230" fill="1" layer="-1.00" geo="1" shape="72.832626,19.143021 72.832630,19.142968 72.832732,19.142974 72.832706,19.143023 72.832626,19.143021"/>
    <poly id="1008059714#1" type="shop" color="237,199,255" fill="1" layer="-1.00" geo="1" shape="72.832626,19.143021 72.832630,19.142968 72.832732,19.142974 72.832706,19.143023 72.832626,19.143021"/>
    <poly id="1013986171" type="residential" color="235,235,227" fill="1" layer="-3.00" geo="1" shape="72.830529,19.147828 72.830467,19.147382 72.829984,19.147402 72.829896,19.146364 72.829892,19.146330 72.829836,19.145799 72.829609,19.145791 72.829462,19.145895 72.829510,19.146368 72.829620,19.147442 72.829672,19.147812 72.829728,19.147862 72.830529,19.147828"/>
    <poly id="1014357672" type="building" color="255,230,230" fill="1" layer="-1.00" geo="1" shape="72.850191,19.130059 72.850230,19.130064 72.850236,19.130076 72.850301,19.130077 72.850364,19.130073 72.850403,19.130071 72.850410,19.129971 72.850372,19.129960 72.850322,19.129965 72.850285,19.129960 72.850247,19.129955 72.850195,19.129953 72.850191,19.129972 72.850198,19.130002 72.850196,19.130025 72.850191,19.130059"/>
    <poly id="1014358965" type="leisure" color="207,245,201" fill="1" layer="-2.00" geo="1" shape="72.849395,19.130475 72.849286,19.130433 72.849205,19.130306 72.849218,19.130151 72.849283,19.130035 72.849412,19.129970 72.849524,19.130048 72.849563,19.130140 72.849560,19.130237 72.849548,19.130331 72.849497,19.130414 72.849395,19.130475"/>
    <poly id="1014531200" type="building" color="255,230,230" fill="1" layer="-1.00" geo="1" shape="72.849728,19.129963 72.849722,19.129875 72.849705,19.129876 72.849703,19.129857 72.849846,19.129850 72.849848,19.129886 72.849816,19.129888 72.849817,19.129914 72.849843,19.129913 72.849846,19.129977 72.849808,19.129996 72.849704,19.129991 72.849697,19.129974 72.849728,19.129963"/>
    <poly id="1014531842" type="leisure" color="207,245,201" fill="1" layer="-2.00" geo="1" shape="72.850231,19.133432 72.850415,19.133509 72.850604,19.133439 72.850979,19.133521 72.851199,19.133518 72.851196,19.133330 72.851285,19.133329 72.851277,19.132861 72.851349,19.132829 72.851324,19.132669 72.851404,19.132658 72.851392,19.132583 72.851318,19.132513 72.851152,19.132477 72.850994,19.132385 72.850910,19.132335 72.850905,19.132234 72.850813,19.132195 72.850468,19.132272 72.850315,19.132251 72.849991,19.132422 72.849982,19.132850 72.850104,19.132892 72.850104,19.133196 72.850152,19.133331 72.850231,19.133432"/>
    <poly id="1014576000" type="building" color="255,230,230" fill="1" layer="-1.00" geo="1" shape="72.849053,19.134869 72.848996,19.134880 72.848974,19.134777 72.849089,19.134762 72.849091,19.134763 72.849113,19.134859 72.849053,19.134869"/>
    <poly id="101771471" type="residential" color="235,235,227" fill="1" layer="-3.00" geo="1" shape="72.839294,19.151468 72.838178,19.152207 72.839091,19.153568 72.839675,19.153166 72.839237,19.152461 72.839294,19.151468"/>
    <poly id="102204038" type="building" color="255,230,230" fill="1" layer="-1.00" geo="1" shape="72.854835,19.150272 72.855161,19.150257 72.855160,19.150125 72.855333,19.150120 72.855334,19.150033 72.855427,19.150030 72.855423,19.149876 72.854825,19.149898 72.854835,19.150272"/>
    <poly id="102392821" type="building" color="255,230,230" fill="1" layer="-1.00" geo="1" shape="72.854336,19.149178 72.852715,19.149205 72.852694,19.148581 72.854322,19.148544 72.854336,19.149178"/>
    <poly id="102392823" type="building" color="255,230,230" fill="1" layer="-1.00" geo="1" shape="72.854750,19.149596 72.854708,19.148213 72.855288,19.148192 72.855329,19.149575 72.854750,19.149596"/>
    <poly id="102392828" type="building" color="255,230,230" fill="1" layer="-1.00" geo="1" shape="72.854904,19.151715 72.855848,19.151643 72.855801,19.151065 72.854855,19.151136 72.854904,19.151715"/>
    <poly id="102392834" type="building" color="255,230,230" fill="1" layer="-1.00" geo="1" shape="72.852411,19.147619 72.854235,19.147427 72.854213,19.147224 72.852390,19.147396 72.852411,19.147619"/>
    <poly id="102392838" type="building" color="255,230,230" fill="1" layer="-1.00" geo="1" shape="72.852609,19.151603 72.853517,19.151575 72.853511,19.151391 72.853645,19.151389 72.853645,19.151117 72.852586,19.151151 72.852609,19.151603"/>
    <poly id="102392842" type="building" color="255,230,230" fill="1" layer="-1.00" geo="1" shape="72.853959,19.150982 72.852762,19.151010 72.852733,19.150001 72.854364,19.149960 72.854387,19.150812 72.853955,19.150820 72.853959,19.150982"/>
    <poly id="102404342" type="building" color="255,230,230" fill="1" layer="-1.00" geo="1" shape="72.854339,19.149185 72.852711,19.149212 72.852717,19.149595 72.854349,19.149568 72.854339,19.149185"/>
    <poly id="102523109" type="amenity" color="237,199,199" fill="1" layer="-1.00" geo="1" shape="72.856136,19.152019 72.854655,19.152167 72.854633,19.151275 72.854081,19.151290 72.853591,19.151617 72.852594,19.151637 72.852416,19.148737 72.852192,19.147139 72.853426,19.146954 72.855076,19.146387 72.855183,19.146762 72.855694,19.146739 72.856145,19.151977 72.856136,19.152019"/>
    <poly id="102523109#1" type="commercial" color="209,209,204" fill="1" layer="-3.00" geo="1" shape="72.856136,19.152019 72.854655,19.152167 72.854633,19.151275 72.854081,19.151290 72.853591,19.151617 72.852594,19.151637 72.852416,19.148737 72.852192,19.147139 72.853426,19.146954 72.855076,19.146387 72.855183,19.146762 72.855694,19.146739 72.856145,19.151977 72.856136,19.152019"/>
    <poly id="1067746269" type="building" color="255,230,230" fill="1" layer="-1.00" geo="1" shape="72.854607,19.130233 72.854593,19.130539 72.854791,19.130547 72.854805,19.130241 72.854607,19.130233"/>
    <poly id="1067746270" type="building" color="255,230,230" fill="1" layer="-1.00" geo="1" shape="72.851666,19.130560 72.851644,19.130405 72.851725,19.130395 72.851746,19.130550 72.851666,19.130560"/>
    <poly id="1067746271" type="building" color="255,230,230" fill="1" layer="-1.00" geo="1" shape="72.852680,19.130329 72.852688,19.130494 72.852538,19.130501 72.852530,19.130335 72.852680,19.130329"/>
    <poly id="1067746272" type="building" color="255,230,230" fill="1" layer="-1.00" geo="1" shape="72.851925,19.130822 72.851919,19.130666 72.852000,19.130664 72.852005,19.130819 72.851925,19.130822"/>
    <poly id="1067746273" type="building" color="255,230,230" fill="1" layer="-1.00" geo="1" shape="72.853539,19.130240 72.853701,19.130194 72.853697,19.130166 72.854034,19.130067 72.854048,19.130202 72.854014,19.130205 72.854010,19.130167 72.853971,19.130205 72.853930,19.130221 72.854005,19.130339 72.853939,19.130384 72.853869,19.130284 72.853836,19.130303 72.853843,19.130335 72.853776,19.130351 72.853783,19.130377 72.853605,19.130445 72.853539,19.130240"/>
    <poly id="1067746274" type="building" color="255,230,230" fill="1" layer="-1.00" geo="1" shape="72.852931,19.130286 72.852877,19.130182 72.853112,19.130151 72.853168,19.130150 72.853178,19.130450 72.853075,19.130452 72.853014,19.130375 72.852977,19.130337 72.852931,19.130286"/>
    <poly id="1067746275" type="building" color="255,230,230" fill="1" layer="-1.00" geo="1" shape="72.851952,19.130062 72.851955,19.129829 72.852020,19.129830 72.852091,19.129946 72.852131,19.129951 72.852130,19.130002 72.852175,19.130002 72.852174,19.130066 72.851952,19.130062"/>
    <poly id="1067746276" type="building" color="255,230,230" fill="1" layer="-1.00" geo="1" shape="72.851395,19.130563 72.851402,19.130419 72.851512,19.130423 72.851506,19.130535 72.851465,19.130533 72.851463,19.130566 72.851395,19.130563"/>
    <poly id="1067746901" type="building" color="255,230,230" fill="1" layer="-1.00" geo="1" shape="72.842034,19.136716 72.842168,19.136781 72.842242,19.136646 72.842108,19.136580 72.842034,19.136716"/>
    <poly id="1067746902" type="building" color="255,230,230" fill="1" layer="-1.00" geo="1" shape="72.842021,19.136275 72.842034,19.136419 72.842188,19.136407 72.842175,19.136262 72.842021,19.136275"/>
    <poly id="1067746903" type="building" color="255,230,230" fill="1" layer="-1.00" geo="1" shape="72.841793,19.136288 72.841795,19.136417 72.841968,19.136415 72.841966,19.136286 72.841793,19.136288"/>
    <poly id="1067746904" type="building" color="255,230,230" fill="1" layer="-1.00" geo="1" shape="72.841558,19.136361 72.841551,19.136498 72.841609,19.136500 72.841610,19.136460 72.841695,19.136463 72.841693,19.136491 72.841741,19.136493 72.841747,19.136349 72.841688,19.136347 72.841686,19.136380 72.841621,19.136377 72.841621,19.136364 72.841558,19.136361"/>
    <poly id="1067746905" type="building" color="255,230,230" fill="1" layer="-1.00" geo="1" shape="72.841553,19.136533 72.841556,19.136639 72.841741,19.136635 72.841738,19.136528 72.841553,19.136533"/>
    <poly id="1067746906" type="building" color="255,230,230" fill="1" layer="-1.00" geo="1" shape="72.841249,19.136674 72.841423,19.136678 72.841427,19.136528 72.841253,19.136524 72.841249,19.136674"/>
    <poly id="1067746907" type="building" color="255,230,230" fill="1" layer="-1.00" geo="1" shape="72.841221,19.136765 72.841219,19.136905 72.841391,19.136908 72.841394,19.136768 72.841221,19.136765"/>
    <poly id="1111203066" type="leisure" color="207,245,201" fill="1" layer="-2.00" geo="1" shape="72.842004,19.129502 72.842035,19.129255 72.842146,19.129052 72.842154,19.129052 72.842354,19.129064 72.842493,19.129124 72.842750,19.129300 72.842670,19.129361 72.842512,19.129606 72.842449,19.129733 72.842116,19.129600 72.842004,19.129502"/>
    <poly id="1111211569" type="water" color="181,209,209" fill="0" layer="-4.00" geo="1" shape="72.859737,19.137383 72.859416,19.137436 72.859236,19.137443 72.859126,19.137433 72.859024,19.137413 72.858941,19.137377"/>
    <poly id="1111211570" type="water" color="181,209,209" fill="0" layer="-4.00" geo="1" shape="72.858941,19.137377 72.858842,19.137321"/>
    <poly id="1111211572" type="building" color="255,230,230" fill="1" layer="-1.00" geo="1" shape="72.853339,19.142154 72.853449,19.142156 72.853453,19.141938 72.853343,19.141937 72.853339,19.142154"/>
    <poly id="1131759266" type="water" color="181,209,209" fill="0" layer="-4.00" geo="1" shape="72.847091,19.139203 72.846863,19.139682"/>
    <poly id="1131759267" type="water" color="181,209,209" fill="0" layer="-4.00" geo="1" shape="72.848215,19.137366 72.848049,19.137556 72.848118,19.137969 72.847834,19.138603 72.847217,19.138884 72.847179,19.138922 72.847091,19.139203"/>
    <poly id="1153422845" type="farm" color="242,242,204" fill="1" layer="-3.00" geo="1" shape="72.831959,19.130948 72.831950,19.130709 72.831754,19.130119 72.831961,19.130056 72.832156,19.130727 72.832953,19.130517 72.832950,19.130654 72.831959,19.130948"/>
    <poly id="1153428130" type="tourism" color="207,245,201" fill="1" layer="-2.00" geo="1" shape="72.825486,19.139273 72.825500,19.139087 72.825513,19.138919 72.824054,19.138787 72.825486,19.139273"/>
    <poly id="1170388381" type="water" color="181,209,209" fill="0" layer="-4.00" geo="1" shape="72.846220,19.146316 72.846157,19.146521"/>
    <poly id="1170388382" type="water" color="181,209,209" fill="0" layer="-4.00" geo="1" shape="72.846157,19.146521 72.845938,19.147237 72.845926,19.147274 72.845562,19.147690 72.845422,19.148500 72.844049,19.149970 72.843040,19.150436"/>
    <poly id="1170388383" type="landuse" color="194,194,130" fill="1" layer="-3.00" geo="1" shape="72.845143,19.146459 72.845169,19.146709 72.845181,19.146805 72.845191,19.146890 72.845232,19.147014 72.845289,19.147174 72.845327,19.147263 72.845509,19.147626 72.845476,19.147659 72.844578,19.147631 72.844580,19.146407 72.844782,19.146425 72.845143,19.146459"/>
    <poly id="1170388391" type="building" color="255,230,230" fill="1" layer="-1.00" geo="1" shape="72.854097,19.151427 72.854118,19.151994 72.854420,19.151984 72.854399,19.151416 72.854097,19.151427"/>
    <poly id="1170388392" type="commercial" color="209,209,204" fill="1" layer="-3.00" geo="1" shape="72.856136,19.152019 72.856232,19.153063 72.856146,19.153185 72.856012,19.153205 72.855079,19.153094 72.855079,19.152987 72.853882,19.152815 72.853850,19.152111 72.853591,19.151617 72.854081,19.151290 72.854633,19.151275 72.854655,19.152167 72.856136,19.152019"/>
    <poly id="1170388393" type="parking" color="184,184,179" fill="1" layer="-1.00" geo="1" shape="72.855395,19.149628 72.855798,19.149617 72.855755,19.148173 72.855352,19.148183 72.855395,19.149628"/>
    <poly id="1170388394" type="parking" color="184,184,179" fill="1" layer="-1.00" geo="1" shape="72.855438,19.146922 72.854540,19.146988 72.854621,19.147961 72.855519,19.147895 72.855438,19.146922"/>
    <poly id="1170388395" type="building" color="255,230,230" fill="1" layer="-1.00" geo="1" shape="72.854408,19.147626 72.852707,19.147758 72.852758,19.148343 72.854459,19.148211 72.854408,19.147626"/>
    <poly id="1170388401" type="building" color="255,230,230" fill="1" layer="-1.00" geo="1" shape="72.849229,19.140526 72.849165,19.140540 72.849355,19.141902 72.849429,19.141880 72.849229,19.140526"/>
    <poly id="1170388402" type="man_made" color="255,230,230" fill="1" layer="-1.00" geo="1" shape="72.848891,19.139302 72.850015,19.139079 72.849953,19.138793 72.848826,19.139011 72.848891,19.139302"/>
    <poly id="1170388404" type="water" color="181,209,209" fill="1" layer="-4.00" geo="1" shape="72.835949,19.152000 72.835622,19.151963 72.835701,19.151455 72.836032,19.151510 72.835949,19.152000"/>
    <poly id="1170388405" type="water" color="181,209,209" fill="1" layer="-4.00" geo="1" shape="72.836032,19.151510 72.836496,19.151756 72.836689,19.152095 72.837445,19.152172 72.838641,19.151316 72.838894,19.150965 72.838956,19.150942 72.839140,19.150824 72.839229,19.150762 72.840321,19.149998 72.840514,19.150555 72.839479,19.151264 72.837837,19.152394 72.837589,19.152603 72.837034,19.152715 72.836544,19.152635 72.836296,19.152368 72.836199,19.152069 72.835949,19.152000 72.836032,19.151510"/>
    <poly id="1170388407" type="building" color="255,230,230" fill="1" layer="-1.00" geo="1" shape="72.829216,19.146528 72.829059,19.146958 72.829053,19.146989 72.829057,19.147014 72.829072,19.147039 72.829207,19.147112 72.829408,19.147081 72.829438,19.147024 72.829396,19.146580 72.829216,19.146528"/>
    <poly id="1170388408" type="amenity" color="237,199,199" fill="1" layer="-1.00" geo="1" shape="72.827591,19.152004 72.828101,19.152501 72.827946,19.152675 72.827704,19.152450 72.827347,19.152800 72.827061,19.152431 72.827361,19.152189 72.827591,19.152004"/>
    <poly id="1170388410" type="commercial" color="209,209,204" fill="1" layer="-3.00" geo="1" shape="72.837063,19.134950 72.837599,19.134513 72.837560,19.134204 72.836652,19.134259 72.836730,19.134977 72.837063,19.134950"/>
    <poly id="1170388411" type="residential" color="235,235,227" fill="1" layer="-3.00" geo="1" shape="72.835859,19.146091 72.836316,19.146161 72.836495,19.146175 72.836614,19.145888 72.836668,19.145710 72.836741,19.145090 72.836682,19.144890 72.836274,19.145057 72.836244,19.145262 72.835893,19.145381 72.835859,19.146091"/>
    <poly id="1170388413" type="building" color="255,230,230" fill="1" layer="-1.00" geo="1" shape="72.838725,19.137978 72.838731,19.138298 72.839041,19.138281 72.839038,19.137962 72.838725,19.137978"/>
    <poly id="1170388414" type="building" color="255,230,230" fill="1" layer="-1.00" geo="1" shape="72.838213,19.138030 72.838209,19.138220 72.838606,19.138227 72.838610,19.138038 72.838213,19.138030"/>
    <poly id="1170388415" type="commercial" color="209,209,204" fill="1" layer="-3.00" geo="1" shape="72.839395,19.138501 72.839186,19.137931 72.838395,19.137931 72.838171,19.137952 72.838138,19.138299 72.839395,19.138501"/>
    <poly id="1170388416" type="building" color="255,230,230" fill="1" layer="-1.00" geo="1" shape="72.839393,19.135833 72.839303,19.135802 72.839210,19.135779 72.839115,19.135765 72.839020,19.135761 72.838924,19.135765 72.838829,19.135778 72.838736,19.135800 72.838655,19.135828 72.838576,19.135861 72.838502,19.135902 72.838431,19.135948 72.838365,19.136001 72.838304,19.136059 72.838382,19.136125 72.838440,19.136071 72.838503,19.136022 72.838571,19.135980 72.838643,19.135943 72.838717,19.135913 72.838795,19.135889 72.838876,19.135872 72.838959,19.135862 72.839042,19.135859 72.839125,19.135864 72.839207,19.135876 72.839288,19.135895 72.839366,19.135922 72.839393,19.135833"/>
    <poly id="1170388417" type="leisure" color="207,245,201" fill="1" layer="-2.00" geo="1" shape="72.839154,19.135983 72.839073,19.135964 72.838989,19.135955 72.838906,19.135955 72.838822,19.135964 72.838741,19.135983 72.838662,19.136010 72.838587,19.136046 72.838517,19.136089 72.838453,19.136140 72.838395,19.136198 72.838345,19.136261 72.838303,19.136330 72.838270,19.136402 72.838246,19.136478 72.838232,19.136556 72.838227,19.136635 72.838232,19.136715 72.838246,19.136793 72.838270,19.136868 72.838304,19.136941 72.838346,19.137010 72.838396,19.137073 72.838453,19.137131 72.838518,19.137182 72.838588,19.137225 72.838663,19.137261 72.838741,19.137288 72.838823,19.137306 72.838906,19.137315 72.838990,19.137315 72.839073,19.137306 72.839155,19.137288 72.839234,19.137261 72.839308,19.137225 72.839378,19.137181 72.839443,19.137130 72.839500,19.137073 72.839550,19.137009 72.839592,19.136941 72.839625,19.136868 72.839649,19.136792 72.839664,19.136714 72.839669,19.136635 72.839664,19.136556 72.839649,19.136478 72.839625,19.136402 72.839592,19.136329 72.839550,19.136261 72.839500,19.136197 72.839442,19.136140 72.839378,19.136089 72.839308,19.136045 72.839233,19.136010 72.839154,19.135983"/>
    <poly id="1170388417#1" type="sport" color="79,230,125" fill="1" layer="-2.00" geo="1" shape="72.839154,19.135983 72.839073,19.135964 72.838989,19.135955 72.838906,19.135955 72.838822,19.135964 72.838741,19.135983 72.838662,19.136010 72.838587,19.136046 72.838517,19.136089 72.838453,19.136140 72.838395,19.136198 72.838345,19.136261 72.838303,19.136330 72.838270,19.136402 72.838246,19.136478 72.838232,19.136556 72.838227,19.136635 72.838232,19.136715 72.838246,19.136793 72.838270,19.136868 72.838304,19.136941 72.838346,19.137010 72.838396,19.137073 72.838453,19.137131 72.838518,19.137182 72.838588,19.137225 72.838663,19.137261 72.838741,19.137288 72.838823,19.137306 72.838906,19.137315 72.838990,19.137315 72.839073,19.137306 72.839155,19.137288 72.839234,19.137261 72.839308,19.137225 72.839378,19.137181 72.839443,19.137130 72.839500,19.137073 72.839550,19.137009 72.839592,19.136941 72.839625,19.136868 72.839649,19.136792 72.839664,19.136714 72.839669,19.136635 72.839664,19.136556 72.839649,19.136478 72.839625,19.136402 72.839592,19.136329 72.839550,19.136261 72.839500,19.136197 72.839442,19.136140 72.839378,19.136089 72.839308,19.136045 72.839233,19.136010 72.839154,19.135983"/>
    <poly id="1170388418" type="residential" color="235,235,227" fill="1" layer="-3.00" geo="1" shape="72.841120,19.136449 72.841158,19.136348 72.841274,19.136324 72.841345,19.136255 72.842217,19.136183 72.842193,19.136487 72.842110,19.136486 72.841839,19.136881 72.841489,19.136814 72.841501,19.137333 72.841525,19.137525 72.841609,19.137596 72.841566,19.137681 72.841428,19.137634 72.841458,19.137735 72.841078,19.137829 72.841051,19.137495 72.841120,19.136449"/>
    <poly id="1170388419" type="tourism" color="207,245,201" fill="1" layer="-2.00" geo="1" shape="72.841078,19.137829 72.841021,19.137843 72.840584,19.137843 72.839750,19.137781 72.839816,19.136687 72.840203,19.136707 72.840691,19.136459 72.841120,19.136449 72.841051,19.137495 72.841078,19.137829"/>
    <poly id="1170462402" type="residential" color="235,235,227" fill="1" layer="-3.00" geo="1" shape="72.827551,19.134575 72.827881,19.134661 72.826579,19.135977 72.826329,19.135963 72.827551,19.134575"/>
    <poly id="1170462403" type="water" color="181,209,209" fill="0" layer="-4.00" geo="1" shape="72.831494,19.133268 72.831714,19.134475"/>
    <poly id="1170462404" type="residential" color="235,235,227" fill="1" layer="-3.00" geo="1" shape="72.827953,19.138732 72.829268,19.138841 72.829266,19.138998 72.828219,19.139829 72.827862,19.139611 72.827953,19.138732"/>
    <poly id="1170462405" type="residential" color="235,235,227" fill="1" layer="-3.00" geo="1" shape="72.825797,19.139307 72.825837,19.138572 72.827854,19.138730 72.827766,19.139520 72.825797,19.139307"/>
    <poly id="1170462406" type="residential" color="235,235,227" fill="1" layer="-3.00" geo="1" shape="72.825834,19.139467 72.827677,19.139654 72.827701,19.139900 72.827403,19.140090 72.827064,19.139904 72.826904,19.140024 72.826689,19.139869 72.825834,19.139467"/>
    <poly id="1170462407" type="residential" color="235,235,227" fill="1" layer="-3.00" geo="1" shape="72.825810,19.136821 72.825810,19.136766 72.825811,19.136659 72.826288,19.136122 72.827640,19.136251 72.827627,19.136439 72.827960,19.136472 72.827990,19.136284 72.829528,19.136431 72.829415,19.137447 72.826478,19.137194 72.826515,19.136766 72.826034,19.136746 72.825810,19.136821"/>
    <poly id="1170462408" type="residential" color="235,235,227" fill="1" layer="-3.00" geo="1" shape="72.828266,19.137486 72.825838,19.137262 72.825801,19.137615 72.828230,19.137840 72.828266,19.137486"/>
    <poly id="1170462409" type="residential" color="235,235,227" fill="1" layer="-3.00" geo="1" shape="72.829338,19.137934 72.829374,19.137581 72.828638,19.137513 72.828602,19.137866 72.829338,19.137934"/>
    <poly id="1170462410" type="residential" color="235,235,227" fill="1" layer="-3.00" geo="1" shape="72.829338,19.137934 72.829276,19.138334 72.829246,19.138707 72.825794,19.138415 72.825798,19.138017 72.825801,19.137615 72.828230,19.137840 72.828602,19.137866 72.829338,19.137934"/>
    <poly id="1175540316" type="water" color="181,209,209" fill="0" layer="-4.00" geo="1" shape="72.835850,19.130344 72.835803,19.130367 72.835580,19.130533 72.835499,19.130588 72.835255,19.130596 72.834861,19.130621 72.834351,19.130667 72.833590,19.130720 72.833067,19.130750 72.832581,19.130816 72.832369,19.130862 72.832147,19.130922 72.831937,19.130996 72.831594,19.131052"/>
    <poly id="1175540317" type="water" color="181,209,209" fill="0" layer="-4.00" geo="1" shape="72.835965,19.130289 72.835850,19.130344"/>
    <poly id="1175813091" type="building" color="255,230,230" fill="1" layer="-1.00" geo="1" shape="72.833606,19.143758 72.833472,19.143756 72.833522,19.143113 72.833655,19.143121 72.833606,19.143758"/>
    <poly id="1175813094" type="building" color="255,230,230" fill="1" layer="-1.00" geo="1" shape="72.829956,19.142365 72.829805,19.142370 72.829799,19.142194 72.829955,19.142189 72.829960,19.142330 72.830120,19.142325 72.830127,19.142519 72.829962,19.142524 72.829956,19.142365"/>
    <poly id="1175813095" type="building" color="255,230,230" fill="1" layer="-1.00" geo="1" shape="72.829666,19.142680 72.829470,19.142683 72.829467,19.142535 72.829326,19.142538 72.829323,19.142357 72.829480,19.142354 72.829477,19.142180 72.829635,19.142177 72.829638,19.142342 72.829492,19.142345 72.829495,19.142490 72.829663,19.142487 72.829666,19.142680"/>
    <poly id="1175813096" type="building" color="255,230,230" fill="1" layer="-1.00" geo="1" shape="72.830473,19.142507 72.830629,19.142501 72.830623,19.142355 72.830782,19.142349 72.830774,19.142162 72.830616,19.142168 72.830622,19.142316 72.830463,19.142322 72.830456,19.142172 72.830289,19.142178 72.830297,19.142376 72.830468,19.142369 72.830473,19.142507"/>
    <poly id="1188076464" type="building" color="255,230,230" fill="1" layer="-1.00" geo="1" shape="72.826687,19.130674 72.826861,19.130742 72.827014,19.130395 72.826840,19.130327 72.826687,19.130674"/>
    <poly id="1188163301" type="building" color="255,230,230" fill="1" layer="-1.00" geo="1" shape="72.827774,19.131723 72.827825,19.131814 72.827900,19.131899 72.827991,19.131981 72.828324,19.131922 72.828420,19.131886 72.828515,19.131842 72.828612,19.131782 72.828689,19.131717 72.828643,19.131534 72.827774,19.131723"/>