<?xml version="1.0" encoding="UTF-8"?>

<!-- generated on 2026-07-04T00:44:22.925660-05:00 by Eclipse SUMO netedit 1.25.0
-->

<routes xmlns:xsi="http://www.w3.org/2001/XMLSchema-instance" xsi:noNamespaceSchemaLocation="http://sumo.dlr.de/xsd/routes_file.xsd">
</routes>
