<?xml version="1.0" encoding="UTF-8"?>

<!-- generated on 2026-07-04T02:00:57.569595-05:00 by Eclipse SUMO netconvert 1.25.0
<netconvertConfiguration xmlns:xsi="http://www.w3.org/2001/XMLSchema-instance" xsi:noNamespaceSchemaLocation="http://sumo.dlr.de/xsd/netconvertConfiguration.xsd">

    <input>
        <sumo-net-file value="smart5.net.xml"/>
    </input>

    <output>
        <output-file value="smart5_check.net.xml"/>
    </output>

    <processing>
        <geometry.min-radius.fix.railways value="false"/>
        <geometry.avoid-overlap value="false"/>
        <geometry.max-grade.fix value="false"/>
        <offset.disable-normalization value="true"/>
        <lefthand value="0"/>
    </processing>

    <junctions>
        <no-turnarounds value="true"/>
        <junctions.corner-detail value="5"/>
        <junctions.limit-turn-speed value="5.50"/>
        <rectangular-lane-cut value="0"/>
        <check-lane-foes.all value="true"/>
    </junctions>

    <pedestrian>
        <walkingareas value="0"/>
    </pedestrian>

</netconvertConfiguration>
-->

<net version="1.20" junctionCornerDetail="5" limitTurnSpeed="5.50" checkLaneFoesAll="1" avoidOverlap="0" xmlns:xsi="http://www.w3.org/2001/XMLSchema-instance" xsi:noNamespaceSchemaLocation="http://sumo.dlr.de/xsd/net_file.xsd">

    <location netOffset="-269910.05,-2111688.93" convBoundary="2591.10,5304.50,4801.39,6542.00" origBoundary="72.803639,19.086283,72.941528,19.199953" projParameter="+proj=utm +zone=43 +ellps=WGS84 +datum=WGS84 +units=m +no_defs"/>

    <type id="highway.footway" priority="1" numLanes="1" speed="2.78" allow="pedestrian" oneway="1" width="2.00"/>
    <type id="highway.living_street" priority="2" numLanes="1" speed="2.78" disallow="tram rail_urban rail rail_electric rail_fast ship container cable_car subway aircraft wheelchair scooter drone" oneway="0"/>
    <type id="highway.path" priority="1" numLanes="1" speed="5.56" allow="pedestrian bicycle" oneway="0" width="2.00"/>
    <type id="highway.primary" priority="12" numLanes="2" speed="27.78" disallow="tram rail_urban rail rail_electric rail_fast ship container cable_car subway aircraft wheelchair scooter drone" oneway="0"/>
    <type id="highway.primary_link" priority="7" numLanes="1" speed="22.22" disallow="tram rail_urban rail rail_electric rail_fast ship container cable_car subway aircraft wheelchair scooter drone" oneway="0"/>
    <type id="highway.residential" priority="3" numLanes="1" speed="13.89" disallow="tram rail_urban rail rail_electric rail_fast ship container cable_car subway aircraft wheelchair scooter drone" oneway="0"/>
    <type id="highway.secondary" priority="11" numLanes="1" speed="27.78" disallow="tram rail_urban rail rail_electric rail_fast ship container cable_car subway aircraft wheelchair scooter drone" oneway="0"/>
    <type id="highway.service" priority="1" numLanes="1" speed="5.56" allow="pedestrian delivery bicycle" oneway="0"/>
    <type id="highway.steps" priority="1" numLanes="1" speed="1.39" allow="pedestrian" oneway="1" width="2.00"/>
    <type id="highway.tertiary" priority="10" numLanes="1" speed="22.22" disallow="tram rail_urban rail rail_electric rail_fast ship container cable_car subway aircraft wheelchair scooter drone" oneway="0"/>
    <type id="highway.tertiary_link" priority="5" numLanes="1" speed="22.22" disallow="tram rail_urban rail rail_electric rail_fast ship container cable_car subway aircraft wheelchair scooter drone" oneway="0"/>
    <type id="highway.trunk_link" priority="8" numLanes="1" speed="22.22" disallow="pedestrian bicycle tram rail_urban rail rail_electric rail_fast ship container cable_car subway aircraft wheelchair scooter drone" oneway="0"/>

    <edge id=":10216722886_0" function="internal">
        <lane id=":10216722886_0_0" index="0" disallow="tram rail_urban rail rail_electric rail_fast ship container cable_car subway aircraft wheelchair scooter drone" speed="3.65" length="4.67" shape="3958.69,5874.30 3957.51,5873.47 3957.13,5872.66 3957.55,5871.87 3958.77,5871.10"/>
    </edge>
    <edge id=":10242023053_0" function="internal">
        <lane id=":10242023053_0_0" index="0" disallow="tram rail_urban rail rail_electric rail_fast ship container cable_car subway aircraft wheelchair scooter drone" speed="22.22" length="11.86" shape="3843.37,5978.13 3841.68,5966.39"/>
    </edge>
    <edge id=":10242023053_1" function="internal">
        <lane id=":10242023053_1_0" index="0" allow="pedestrian delivery bicycle" speed="12.20" length="3.29" shape="3843.37,5978.13 3843.57,5974.84"/>
    </edge>
    <edge id=":10242023053_7" function="internal">
        <lane id=":10242023053_7_0" index="0" allow="pedestrian delivery bicycle" speed="12.20" length="9.59" shape="3843.57,5974.84 3844.77,5972.15 3846.64,5969.65 3848.83,5966.90"/>
    </edge>
    <edge id=":10242023053_2" function="internal">
        <lane id=":10242023053_2_0" index="0" allow="pedestrian delivery bicycle" speed="11.13" length="10.66" shape="3851.40,5968.81 3849.30,5971.20 3847.65,5972.93 3846.65,5974.83 3846.55,5977.77"/>
    </edge>
    <edge id=":10242023053_3" function="internal">
        <lane id=":10242023053_3_0" index="0" allow="pedestrian delivery bicycle" speed="6.85" length="16.12" shape="3851.40,5968.81 3847.89,5972.56 3845.09,5973.41 3843.03,5971.35 3841.68,5966.39"/>
    </edge>
    <edge id=":10242023053_4" function="internal">
        <lane id=":10242023053_4_0" index="0" allow="pedestrian delivery bicycle" speed="3.65" length="4.67" shape="3851.40,5968.81 3850.04,5969.29 3849.16,5969.14 3848.76,5968.34 3848.83,5966.90"/>
    </edge>
    <edge id=":10242023053_5" function="internal">
        <lane id=":10242023053_5_0" index="0" allow="pedestrian delivery bicycle" speed="4.67" length="6.62" shape="3844.85,5965.90 3845.40,5967.94 3846.25,5968.79 3847.39,5968.44 3848.83,5966.90"/>
    </edge>
    <edge id=":10242023053_6" function="internal">
        <lane id=":10242023053_6_0" index="0" disallow="tram rail_urban rail rail_electric rail_fast ship container cable_car subway aircraft wheelchair scooter drone" speed="22.22" length="11.98" shape="3844.85,5965.90 3846.55,5977.77"/>
    </edge>
    <edge id=":10242023054_0" function="internal">
        <lane id=":10242023054_0_0" index="0" allow="pedestrian delivery bicycle" speed="3.65" length="4.67" shape="3852.75,5961.64 3854.10,5961.15 3854.98,5961.31 3855.39,5962.11 3855.31,5963.55"/>
    </edge>
    <edge id=":10242023055_0" function="internal">
        <lane id=":10242023055_0_0" index="0" allow="pedestrian bicycle" speed="2.89" length="2.92" width="2.00" shape="3852.85,5939.35 3852.01,5939.02 3851.66,5938.59 3851.80,5938.05 3852.43,5937.40"/>
    </edge>
    <edge id=":10242023061_0" function="internal">
        <lane id=":10242023061_0_0" index="0" allow="pedestrian delivery bicycle" speed="5.56" length="2.59" shape="4057.14,5938.85 4056.37,5938.83 4055.85,5938.75 4055.36,5938.54 4054.70,5938.16"/>
    </edge>
    <edge id=":10242023061_1" function="internal">
        <lane id=":10242023061_1_0" index="0" allow="pedestrian delivery bicycle" speed="3.65" length="4.67" shape="4057.14,5938.85 4055.94,5938.04 4055.55,5937.24 4055.95,5936.44 4057.16,5935.65"/>
    </edge>
    <edge id=":10242023061_2" function="internal">
        <lane id=":10242023061_2_0" index="0" allow="pedestrian delivery bicycle" speed="5.56" length="0.86" shape="4056.34,5935.42 4056.56,5935.54 4056.73,5935.61 4056.90,5935.64 4057.16,5935.65"/>
    </edge>
    <edge id=":10242023061_3" function="internal">
        <lane id=":10242023061_3_0" index="0" allow="pedestrian delivery bicycle" speed="3.65" length="4.67" shape="4056.34,5935.42 4056.96,5936.72 4056.89,5937.61 4056.14,5938.09 4054.70,5938.16"/>
    </edge>
    <edge id=":10242023062_0" function="internal">
        <lane id=":10242023062_0_0" index="0" allow="pedestrian bicycle" speed="2.89" length="2.92" width="2.00" shape="3912.87,5924.21 3913.71,5924.54 3914.06,5924.98 3913.92,5925.52 3913.30,5926.17"/>
    </edge>
    <edge id=":10242023063_0" function="internal">
        <lane id=":10242023063_0_0" index="0" allow="pedestrian delivery bicycle" speed="3.65" length="4.67" shape="3926.73,5924.14 3925.41,5923.56 3924.87,5922.85 3925.12,5921.99 3926.16,5920.99"/>
    </edge>
    <edge id=":10272793145_0" function="internal">
        <lane id=":10272793145_0_0" index="0" disallow="tram rail_urban rail rail_electric rail_fast ship container cable_car subway aircraft wheelchair scooter drone" speed="5.96" length="9.09" shape="4101.29,5937.10 4098.74,5936.54 4096.86,5937.02 4095.66,5938.54 4095.14,5941.09"/>
    </edge>
    <edge id=":10272793145_1" function="internal">
        <lane id=":10272793145_1_0" index="0" disallow="tram rail_urban rail rail_electric rail_fast ship container cable_car subway aircraft wheelchair scooter drone" speed="9.22" length="14.83" shape="4101.29,5937.10 4097.42,5935.17 4094.72,5932.72 4093.19,5929.74 4092.84,5926.24"/>
    </edge>
    <edge id=":10272793145_2" function="internal">
        <lane id=":10272793145_2_0" index="0" disallow="tram rail_urban rail rail_electric rail_fast ship container cable_car subway aircraft wheelchair scooter drone" speed="3.65" length="4.67" shape="4101.29,5937.10 4100.44,5935.93 4100.35,5935.04 4101.00,5934.43 4102.40,5934.10"/>
    </edge>
    <edge id=":10272793145_3" function="internal">
        <lane id=":10272793145_3_0" index="0" disallow="tram rail_urban rail rail_electric rail_fast ship container cable_car subway aircraft wheelchair scooter drone" speed="7.92" length="10.73" shape="4096.03,5926.43 4096.31,5928.85 4097.47,5930.93 4099.50,5932.68 4102.40,5934.10"/>
    </edge>
    <edge id=":10272793145_4" function="internal">
        <lane id=":10272793145_4_0" index="0" disallow="tram rail_urban rail rail_electric rail_fast ship container cable_car subway aircraft wheelchair scooter drone" speed="27.78" length="14.69" shape="4096.03,5926.43 4095.14,5941.09"/>
    </edge>
    <edge id=":10272793145_5" function="internal">
        <lane id=":10272793145_5_0" index="0" disallow="tram rail_urban rail rail_electric rail_fast ship container cable_car subway aircraft wheelchair scooter drone" speed="3.65" length="4.67" shape="4096.03,5926.43 4095.16,5927.58 4094.34,5927.93 4093.56,5927.48 4092.84,5926.24"/>
    </edge>
    <edge id=":10272793145_6" function="internal">
        <lane id=":10272793145_6_0" index="0" disallow="tram rail_urban rail rail_electric rail_fast ship container cable_car subway aircraft wheelchair scooter drone" speed="27.78" length="14.68" shape="4091.94,5940.90 4092.84,5926.24"/>
    </edge>
    <edge id=":10272793145_7" function="internal">
        <lane id=":10272793145_7_0" index="0" disallow="tram rail_urban rail rail_electric rail_fast ship container cable_car subway aircraft wheelchair scooter drone" speed="7.58" length="15.46" shape="4091.94,5940.90 4092.84,5936.55 4094.88,5933.97 4098.07,5933.15 4102.40,5934.10"/>
    </edge>
    <edge id=":10272793145_8" function="internal">
        <lane id=":10272793145_8_0" index="0" disallow="tram rail_urban rail rail_electric rail_fast ship container cable_car subway aircraft wheelchair scooter drone" speed="3.65" length="4.67" shape="4091.94,5940.90 4092.81,5939.75 4093.64,5939.40 4094.41,5939.85 4095.14,5941.09"/>
    </edge>
    <edge id=":10272793150_0" function="internal">
        <lane id=":10272793150_0_0" index="0" disallow="tram rail_urban rail rail_electric rail_fast ship container cable_car subway aircraft wheelchair scooter drone" speed="3.61" length="3.32" shape="4416.99,6063.08 4416.78,6063.41 4417.34,6064.02 4418.24,6064.70 4419.05,6065.26"/>
        <lane id=":10272793150_0_1" index="1" disallow="tram rail_urban rail rail_electric rail_fast ship container cable_car subway aircraft wheelchair scooter drone" speed="6.11" length="12.67" shape="4416.49,6059.92 4413.25,6060.94 4412.29,6062.61 4413.61,6064.93 4417.23,6067.89"/>
    </edge>
    <edge id=":10272793150_2" function="internal">
        <lane id=":10272793150_2_0" index="0" disallow="tram rail_urban rail rail_electric rail_fast ship container cable_car subway aircraft wheelchair scooter drone" speed="20.33" length="10.15" shape="4416.49,6059.92 4413.63,6060.85 4411.72,6062.05 4409.83,6062.88 4407.02,6062.71"/>
    </edge>
    <edge id=":10272793150_3" function="internal">
        <lane id=":10272793150_3_0" index="0" disallow="tram rail_urban rail rail_electric rail_fast ship container cable_car subway aircraft wheelchair scooter drone" speed="26.32" length="12.76" shape="4407.78,6059.61 4410.58,6060.90 4412.39,6062.86 4414.25,6065.26 4417.23,6067.89"/>
    </edge>
    <edge id=":10272793150_4" function="internal">
        <lane id=":10272793150_4_0" index="0" disallow="tram rail_urban rail rail_electric rail_fast ship container cable_car subway aircraft wheelchair scooter drone" speed="3.65" length="1.27" shape="4407.78,6059.61 4408.64,6060.54"/>
    </edge>
    <edge id=":10272793150_5" function="internal">
        <lane id=":10272793150_5_0" index="0" disallow="tram rail_urban rail rail_electric rail_fast ship container cable_car subway aircraft wheelchair scooter drone" speed="3.65" length="3.40" shape="4408.64,6060.54 4408.76,6060.67 4408.95,6061.54 4408.37,6062.22 4407.02,6062.71"/>
    </edge>
    <edge id=":10272793151_0" function="internal">
        <lane id=":10272793151_0_0" index="0" disallow="tram rail_urban rail rail_electric rail_fast ship container cable_car subway aircraft wheelchair scooter drone" speed="27.78" length="0.30" shape="4226.68,5991.84 4226.41,5991.70"/>
    </edge>
    <edge id=":10272793151_1" function="internal">
        <lane id=":10272793151_1_0" index="0" disallow="tram rail_urban rail rail_electric rail_fast ship container cable_car subway aircraft wheelchair scooter drone" speed="27.78" length="0.30" shape="4227.88,5988.86 4228.15,5989.00"/>
    </edge>
    <edge id=":10272793152_0" function="internal">
        <lane id=":10272793152_0_0" index="0" disallow="tram rail_urban rail rail_electric rail_fast ship container cable_car subway aircraft wheelchair scooter drone" speed="27.78" length="0.30" shape="4220.82,5988.82 4220.55,5988.68"/>
    </edge>
    <edge id=":10272793152_1" function="internal">
        <lane id=":10272793152_1_0" index="0" disallow="tram rail_urban rail rail_electric rail_fast ship container cable_car subway aircraft wheelchair scooter drone" speed="27.78" length="0.30" shape="4222.02,5985.84 4222.29,5985.98"/>
    </edge>
    <edge id=":10277864172_0" function="internal">
        <lane id=":10277864172_0_0" index="0" disallow="tram rail_urban rail rail_electric rail_fast ship container cable_car subway aircraft wheelchair scooter drone" speed="5.91" length="7.44" shape="3330.08,6259.19 3330.01,6257.61 3329.17,6256.35 3327.54,6255.43 3325.14,6254.84"/>
    </edge>
    <edge id=":10308639480_0" function="internal">
        <lane id=":10308639480_0_0" index="0" disallow="tram rail_urban rail rail_electric rail_fast ship container cable_car subway aircraft wheelchair scooter drone" speed="2.78" length="14.42" shape="3140.72,5862.28 3134.33,5875.21"/>
    </edge>
    <edge id=":10308639480_1" function="internal">
        <lane id=":10308639480_1_0" index="0" disallow="tram rail_urban rail rail_electric rail_fast ship container cable_car subway aircraft wheelchair scooter drone" speed="2.78" length="4.67" shape="3140.72,5862.28 3139.47,5863.01 3138.58,5863.01 3138.04,5862.30 3137.85,5860.87"/>
    </edge>
    <edge id=":10308639480_2" function="internal">
        <lane id=":10308639480_2_0" index="0" disallow="tram rail_urban rail rail_electric rail_fast ship container cable_car subway aircraft wheelchair scooter drone" speed="2.78" length="14.23" shape="3130.36,5863.34 3133.55,5865.60 3135.28,5868.34 3135.54,5871.54 3134.33,5875.21"/>
    </edge>
    <edge id=":10308639480_3" function="internal">
        <lane id=":10308639480_3_0" index="0" disallow="tram rail_urban rail rail_electric rail_fast ship container cable_car subway aircraft wheelchair scooter drone" speed="2.78" length="4.67" shape="3130.36,5863.34 3131.06,5864.60 3131.05,5865.49 3130.32,5866.02 3128.89,5866.18"/>
    </edge>
    <edge id=":10308639480_4" function="internal">
        <lane id=":10308639480_4_0" index="0" disallow="tram rail_urban rail rail_electric rail_fast ship container cable_car subway aircraft wheelchair scooter drone" speed="2.78" length="9.13" shape="3131.47,5873.79 3132.24,5871.44 3132.06,5869.39 3130.95,5867.64 3128.89,5866.18"/>
    </edge>
    <edge id=":10308639480_5" function="internal">
        <lane id=":10308639480_5_0" index="0" disallow="tram rail_urban rail rail_electric rail_fast ship container cable_car subway aircraft wheelchair scooter drone" speed="2.78" length="14.41" shape="3131.47,5873.79 3137.85,5860.87"/>
    </edge>
    <edge id=":10308639480_6" function="internal">
        <lane id=":10308639480_6_0" index="0" disallow="tram rail_urban rail rail_electric rail_fast ship container cable_car subway aircraft wheelchair scooter drone" speed="2.78" length="4.67" shape="3131.47,5873.79 3132.72,5873.07 3133.61,5873.07 3134.15,5873.78 3134.33,5875.21"/>
    </edge>
    <edge id=":10308639481_0" function="internal">
        <lane id=":10308639481_0_0" index="0" disallow="tram rail_urban rail rail_electric rail_fast ship container cable_car subway aircraft wheelchair scooter drone" speed="2.78" length="4.67" shape="3081.36,5841.58 3080.67,5840.32 3080.68,5839.42 3081.40,5838.90 3082.84,5838.74"/>
    </edge>
    <edge id=":10725718075_0" function="internal">
        <lane id=":10725718075_0_0" index="0" disallow="tram rail_urban rail rail_electric rail_fast ship container cable_car subway aircraft wheelchair scooter drone" speed="11.11" length="0.42" width="4.00" shape="4087.32,5932.54 4087.88,5932.74"/>
        <lane id=":10725718075_0_1" index="1" disallow="tram rail_urban rail rail_electric rail_fast ship container cable_car subway aircraft wheelchair scooter drone" speed="11.11" length="0.42" width="4.00" shape="4086.04,5936.33 4086.49,5936.49"/>
        <lane id=":10725718075_0_2" index="2" disallow="tram rail_urban rail rail_electric rail_fast ship container cable_car subway aircraft wheelchair scooter drone" speed="11.11" length="0.42" width="4.00" shape="4084.75,5940.11 4085.10,5940.24"/>
        <lane id=":10725718075_0_3" index="3" disallow="tram rail_urban rail rail_electric rail_fast ship container cable_car subway aircraft wheelchair scooter drone" speed="11.11" length="0.42" width="4.00" shape="4083.47,5943.90 4083.71,5943.99"/>
    </edge>
    <edge id=":10879528613_0" function="internal">
        <lane id=":10879528613_0_0" index="0" disallow="tram rail_urban rail rail_electric rail_fast ship container cable_car subway aircraft wheelchair scooter drone" speed="11.76" length="13.69" shape="3339.21,5927.28 3338.97,5923.76 3338.06,5920.53 3336.48,5917.59 3334.23,5914.94"/>
    </edge>
    <edge id=":10879528613_1" function="internal">
        <lane id=":10879528613_1_0" index="0" disallow="tram rail_urban rail rail_electric rail_fast ship container cable_car subway aircraft wheelchair scooter drone" speed="6.28" length="11.16" shape="3351.17,5925.33 3347.40,5923.81 3344.68,5923.58 3343.02,5924.63 3342.42,5926.96"/>
    </edge>
    <edge id=":10879528613_2" function="internal">
        <lane id=":10879528613_2_0" index="0" disallow="tram rail_urban rail rail_electric rail_fast ship container cable_car subway aircraft wheelchair scooter drone" speed="22.22" length="19.92" shape="3351.17,5925.33 3347.15,5923.25 3342.37,5920.60 3337.77,5917.72 3334.23,5914.94"/>
    </edge>
    <edge id=":10879528613_3" function="internal">
        <lane id=":10879528613_3_0" index="0" disallow="tram rail_urban rail rail_electric rail_fast ship container cable_car subway aircraft wheelchair scooter drone" speed="12.66" length="15.96" shape="3336.46,5912.64 3339.15,5915.78 3341.03,5919.21 3342.13,5922.94 3342.42,5926.96"/>
    </edge>
    <edge id=":10923487473_0" function="internal">
        <lane id=":10923487473_0_0" index="0" disallow="tram rail_urban rail rail_electric rail_fast ship container cable_car subway aircraft wheelchair scooter drone" speed="3.65" length="4.67" shape="3097.23,5669.67 3095.94,5670.32 3095.05,5670.27 3094.55,5669.53 3094.45,5668.09"/>
    </edge>
    <edge id=":10925691263_0" function="internal">
        <lane id=":10925691263_0_0" index="0" disallow="tram rail_urban rail rail_electric rail_fast ship container cable_car subway aircraft wheelchair scooter drone" speed="6.37" length="9.04" shape="3190.67,6534.50 3191.17,6536.95 3192.34,6538.59 3194.18,6539.44 3196.68,6539.48"/>
    </edge>
    <edge id=":10945603760_0" function="internal">
        <lane id=":10945603760_0_0" index="0" disallow="tram rail_urban rail rail_electric rail_fast ship container cable_car subway aircraft wheelchair scooter drone" speed="5.86" length="8.62" shape="3312.63,6013.98 3311.22,6012.70 3310.92,6011.09 3311.72,6009.15 3313.63,6006.87"/>
    </edge>
    <edge id=":10945603760_1" function="internal">
        <lane id=":10945603760_1_0" index="0" disallow="tram rail_urban rail rail_electric rail_fast ship container cable_car subway aircraft wheelchair scooter drone" speed="27.78" length="9.65" shape="3304.53,6011.40 3311.38,6004.60"/>
        <lane id=":10945603760_1_1" index="1" disallow="tram rail_urban rail rail_electric rail_fast ship container cable_car subway aircraft wheelchair scooter drone" speed="27.78" length="9.65" shape="3306.78,6013.67 3313.63,6006.87"/>
    </edge>
    <edge id=":10945603760_3" function="internal">
        <lane id=":10945603760_3_0" index="0" disallow="tram rail_urban rail rail_electric rail_fast ship container cable_car subway aircraft wheelchair scooter drone" speed="7.00" length="8.40" shape="3306.78,6013.67 3308.85,6011.92 3310.78,6010.93 3312.57,6010.68 3314.21,6011.20"/>
    </edge>
    <edge id=":10945603764_0" function="internal">
        <lane id=":10945603764_0_0" index="0" disallow="tram rail_urban rail rail_electric rail_fast ship container cable_car subway aircraft wheelchair scooter drone" speed="27.78" length="9.46" shape="3288.94,6017.97 3287.20,6020.15 3286.22,6021.79 3285.39,6023.55 3284.12,6026.06"/>
        <lane id=":10945603764_0_1" index="1" disallow="tram rail_urban rail rail_electric rail_fast ship container cable_car subway aircraft wheelchair scooter drone" speed="27.78" length="9.46" shape="3286.07,6016.38 3284.34,6018.57 3283.38,6020.23 3282.58,6022.00 3281.31,6024.52"/>
    </edge>
    <edge id=":10945603764_2" function="internal">
        <lane id=":10945603764_2_0" index="0" disallow="tram rail_urban rail rail_electric rail_fast ship container cable_car subway aircraft wheelchair scooter drone" speed="6.28" length="7.75" shape="3286.07,6016.38 3284.07,6018.44 3282.34,6019.69 3280.89,6020.15 3279.71,6019.80"/>
    </edge>
    <edge id=":10945603764_3" function="internal">
        <lane id=":10945603764_3_0" index="0" disallow="tram rail_urban rail rail_electric rail_fast ship container cable_car subway aircraft wheelchair scooter drone" speed="6.43" length="7.99" shape="3281.58,6017.20 3282.57,6018.38 3282.86,6020.00 3282.44,6022.04 3281.31,6024.52"/>
    </edge>
    <edge id=":10945603764_4" function="internal">
        <lane id=":10945603764_4_0" index="0" disallow="tram rail_urban rail rail_electric rail_fast ship container cable_car subway aircraft wheelchair scooter drone" speed="3.65" length="4.67" shape="3281.58,6017.20 3282.09,6018.55 3281.95,6019.44 3281.15,6019.85 3279.71,6019.80"/>
    </edge>
    <edge id=":10945603765_0" function="internal">
        <lane id=":10945603765_0_0" index="0" disallow="tram rail_urban rail rail_electric rail_fast ship container cable_car subway aircraft wheelchair scooter drone" speed="3.65" length="4.67" shape="3246.45,5996.24 3245.93,5994.89 3246.06,5994.01 3246.85,5993.58 3248.29,5993.62"/>
    </edge>
    <edge id=":11041630498_0" function="internal">
        <lane id=":11041630498_0_0" index="0" allow="pedestrian delivery bicycle" speed="5.56" length="0.30" shape="3724.81,5426.71 3724.56,5426.88"/>
    </edge>
    <edge id=":11041630498_1" function="internal">
        <lane id=":11041630498_1_0" index="0" allow="pedestrian delivery bicycle" speed="5.56" length="0.30" shape="3722.73,5424.25 3722.98,5424.08"/>
    </edge>
    <edge id=":11052166832_0" function="internal">
        <lane id=":11052166832_0_0" index="0" disallow="tram rail_urban rail rail_electric rail_fast ship container cable_car subway aircraft wheelchair scooter drone" speed="27.78" length="9.41" shape="3258.32,6078.31 3255.86,6087.39"/>
        <lane id=":11052166832_0_1" index="1" disallow="tram rail_urban rail rail_electric rail_fast ship container cable_car subway aircraft wheelchair scooter drone" speed="27.78" length="9.41" shape="3255.24,6077.47 3252.77,6086.55"/>
    </edge>
    <edge id=":11052166832_2" function="internal">
        <lane id=":11052166832_2_0" index="0" allow="pedestrian delivery bicycle" speed="6.04" length="7.88" shape="3255.24,6077.47 3254.31,6080.10 3253.19,6081.83 3251.90,6082.67 3250.41,6082.62"/>
    </edge>
    <edge id=":11052166832_3" function="internal">
        <lane id=":11052166832_3_0" index="0" allow="pedestrian delivery bicycle" speed="6.20" length="7.83" shape="3251.39,6079.57 3252.60,6080.37 3253.24,6081.79 3253.29,6083.85 3252.77,6086.55"/>
    </edge>
    <edge id=":11052167692_0" function="internal">
        <lane id=":11052167692_0_0" index="0" allow="pedestrian delivery bicycle" speed="3.65" length="4.67" shape="3111.73,6141.71 3110.53,6140.91 3110.13,6140.11 3110.53,6139.31 3111.73,6138.51"/>
    </edge>
    <edge id=":11052175418_0" function="internal">
        <lane id=":11052175418_0_0" index="0" disallow="tram rail_urban rail rail_electric rail_fast ship container cable_car subway aircraft wheelchair scooter drone" speed="27.78" length="9.40" shape="3319.78,5982.66 3313.59,5989.74"/>
        <lane id=":11052175418_0_1" index="1" disallow="tram rail_urban rail rail_electric rail_fast ship container cable_car subway aircraft wheelchair scooter drone" speed="27.78" length="9.40" shape="3317.37,5980.56 3311.18,5987.64"/>
    </edge>
    <edge id=":11052175418_2" function="internal">
        <lane id=":11052175418_2_0" index="0" disallow="tram rail_urban rail rail_electric rail_fast ship container cable_car subway aircraft wheelchair scooter drone" speed="6.06" length="7.81" shape="3317.37,5980.56 3315.40,5982.51 3313.65,5983.60 3312.13,5983.82 3310.84,5983.18"/>
    </edge>
    <edge id=":11052175418_3" function="internal">
        <lane id=":11052175418_3_0" index="0" disallow="tram rail_urban rail rail_electric rail_fast ship container cable_car subway aircraft wheelchair scooter drone" speed="6.13" length="7.79" shape="3312.99,5980.81 3313.75,5982.03 3313.70,5983.57 3312.84,5985.44 3311.18,5987.64"/>
    </edge>
    <edge id=":11052175420_0" function="internal">
        <lane id=":11052175420_0_0" index="0" disallow="tram rail_urban rail rail_electric rail_fast ship container cable_car subway aircraft wheelchair scooter drone" speed="8.01" length="11.30" shape="3283.84,5951.05 3281.95,5948.50 3279.76,5946.90 3277.26,5946.24 3274.45,5946.53"/>
    </edge>
    <edge id=":11052175420_1" function="internal">
        <lane id=":11052175420_1_0" index="0" disallow="tram rail_urban rail rail_electric rail_fast ship container cable_car subway aircraft wheelchair scooter drone" speed="13.89" length="15.81" shape="3283.84,5951.05 3282.00,5947.63 3280.28,5943.99 3278.75,5940.26 3277.49,5936.59"/>
    </edge>
    <edge id=":11052175420_2" function="internal">
        <lane id=":11052175420_2_0" index="0" disallow="tram rail_urban rail rail_electric rail_fast ship container cable_car subway aircraft wheelchair scooter drone" speed="7.61" length="15.31" shape="3283.84,5951.05 3282.22,5946.99 3282.49,5943.72 3284.64,5941.23 3288.67,5939.54"/>
    </edge>
    <edge id=":11052175420_3" function="internal">
        <lane id=":11052175420_3_0" index="0" disallow="tram rail_urban rail rail_electric rail_fast ship container cable_car subway aircraft wheelchair scooter drone" speed="6.01" length="9.08" shape="3289.48,5942.63 3287.09,5943.64 3285.81,5945.11 3285.66,5947.05 3286.61,5949.46"/>
    </edge>
    <edge id=":11052175420_4" function="internal">
        <lane id=":11052175420_4_0" index="0" disallow="tram rail_urban rail rail_electric rail_fast ship container cable_car subway aircraft wheelchair scooter drone" speed="13.89" length="15.53" shape="3289.48,5942.63 3274.45,5946.53"/>
    </edge>
    <edge id=":11052175420_5" function="internal">
        <lane id=":11052175420_5_0" index="0" disallow="tram rail_urban rail rail_electric rail_fast ship container cable_car subway aircraft wheelchair scooter drone" speed="8.37" length="4.53" shape="3289.48,5942.63 3285.20,5943.18 3284.98,5943.13"/>
    </edge>
    <edge id=":11052175420_12" function="internal">
        <lane id=":11052175420_12_0" index="0" disallow="tram rail_urban rail rail_electric rail_fast ship container cable_car subway aircraft wheelchair scooter drone" speed="8.37" length="10.63" shape="3284.98,5943.13 3281.78,5942.35 3279.21,5940.16 3277.49,5936.59"/>
    </edge>
    <edge id=":11052175420_6" function="internal">
        <lane id=":11052175420_6_0" index="0" disallow="tram rail_urban rail rail_electric rail_fast ship container cable_car subway aircraft wheelchair scooter drone" speed="6.95" length="10.15" shape="3280.56,5935.67 3281.69,5937.99 3283.43,5939.41 3285.75,5939.93 3288.67,5939.54"/>
    </edge>
    <edge id=":11052175420_7" function="internal">
        <lane id=":11052175420_7_0" index="0" disallow="tram rail_urban rail rail_electric rail_fast ship container cable_car subway aircraft wheelchair scooter drone" speed="13.89" length="15.09" shape="3280.56,5935.67 3281.76,5939.23 3283.20,5942.73 3284.82,5946.15 3286.61,5949.46"/>
    </edge>