<?xml version="1.0" encoding="UTF-8"?>

<!-- generated on 2026-07-04T01:54:55.211794-05:00 by Eclipse SUMO netedit 1.25.0
<neteditConfiguration xmlns:xsi="http://www.w3.org/2001/XMLSchema-instance" xsi:noNamespaceSchemaLocation="http://sumo.dlr.de/xsd/neteditConfiguration.xsd">

    <input>
        <sumocfg-file value="smart5.sumocfg"/>
        <additional-files value="smart5.poly.xml"/>
        <route-files value="smart5_new.rou.xml"/>
        <sumo-net-file value="smart5_lhd.net.xml"/>
    </input>

    <output>
        <output-file value="smart5_lhd.net.xml"/>
    </output>

    <processing>
        <geometry.min-radius.fix.railways value="false"/>
        <geometry.avoid-overlap value="false"/>
        <geometry.max-grade.fix value="false"/>
        <offset.disable-normalization value="true"/>
        <lefthand value="1"/>
    </processing>

    <junctions>
        <no-turnarounds value="true"/>
        <junctions.corner-detail value="5"/>
        <junctions.limit-turn-speed value="5.50"/>
        <rectangular-lane-cut value="0"/>
    </junctions>

    <pedestrian>
        <walkingareas value="0"/>
    </pedestrian>

</neteditConfiguration>
-->

<net version="1.20" junctionCornerDetail="5" lefthand="true" limitTurnSpeed="5.50" avoidOverlap="0" xmlns:xsi="http://www.w3.org/2001/XMLSchema-instance" xsi:noNamespaceSchemaLocation="http://sumo.dlr.de/xsd/net_file.xsd">

    <location netOffset="-269910.05,-2111688.93" convBoundary="2678.26,5304.50,4801.39,6542.00" origBoundary="72.803639,19.086283,72.941528,19.199953" projParameter="+proj=utm +zone=43 +ellps=WGS84 +datum=WGS84 +units=m +no_defs"/>

    <type id="highway.footway" priority="1" numLanes="1" speed="2.78" allow="pedestrian" oneway="1" width="2.00"/>
    <type id="highway.living_street" priority="2" numLanes="1" speed="2.78" disallow="tram rail_urban rail rail_electric rail_fast ship container cable_car subway aircraft wheelchair scooter drone" oneway="0"/>
    <type id="highway.path" priority="1" numLanes="1" speed="5.56" allow="pedestrian bicycle" oneway="0" width="2.00"/>
    <type id="highway.primary" priority="12" numLanes="2" speed="27.78" disallow="tram rail_urban rail rail_electric rail_fast ship container cable_car subway aircraft wheelchair scooter drone" oneway="0"/>
    <type id="highway.primary_link" priority="7" numLanes="1" speed="22.22" disallow="tram rail_urban rail rail_electric rail_fast ship container cable_car subway aircraft wheelchair scooter drone" oneway="0"/>
    <type id="highway.residential" priority="3" numLanes="1" speed="13.89" disallow="tram rail_urban rail rail_electric rail_fast ship container cable_car subway aircraft wheelchair scooter drone" oneway="0"/>
    <type id="highway.secondary" priority="11" numLanes="1" speed="27.78" disallow="tram rail_urban rail rail_electric rail_fast ship container cable_car subway aircraft wheelchair scooter drone" oneway="0"/>
    <type id="highway.service" priority="1" numLanes="1" speed="5.56" allow="pedestrian delivery bicycle" oneway="0"/>
    <type id="highway.steps" priority="1" numLanes="1" speed="1.39" allow="pedestrian" oneway="1" width="2.00"/>
    <type id="highway.tertiary" priority="10" numLanes="1" speed="22.22" disallow="tram rail_urban rail rail_electric rail_fast ship container cable_car subway aircraft wheelchair scooter drone" oneway="0"/>
    <type id="highway.tertiary_link" priority="5" numLanes="1" speed="22.22" disallow="tram rail_urban rail rail_electric rail_fast ship container cable_car subway aircraft wheelchair scooter drone" oneway="0"/>
    <type id="highway.trunk_link" priority="8" numLanes="1" speed="22.22" disallow="pedestrian bicycle tram rail_urban rail rail_electric rail_fast ship container cable_car subway aircraft wheelchair scooter drone" oneway="0"/>

    <edge id=":10216722886_0" function="internal">
        <lane id=":10216722886_0_0" index="0" disallow="tram rail_urban rail rail_electric rail_fast ship container cable_car subway aircraft wheelchair scooter drone" speed="3.65" length="4.67" shape="3958.77,5871.10 3957.55,5871.87 3957.13,5872.66 3957.51,5873.47 3958.69,5874.30"/>
    </edge>
    <edge id=":10242023053_0" function="internal">
        <lane id=":10242023053_0_0" index="0" allow="pedestrian delivery bicycle" speed="4.67" length="6.62" shape="3848.83,5966.90 3847.39,5968.44 3846.25,5968.79 3845.40,5967.94 3844.85,5965.90"/>
    </edge>
    <edge id=":10242023053_1" function="internal">
        <lane id=":10242023053_1_0" index="0" allow="pedestrian delivery bicycle" speed="12.20" length="12.88" shape="3848.83,5966.90 3846.64,5969.65 3844.77,5972.15 3843.57,5974.84 3843.37,5978.13"/>
    </edge>
    <edge id=":10242023053_2" function="internal">
        <lane id=":10242023053_2_0" index="0" allow="pedestrian delivery bicycle" speed="3.65" length="4.67" shape="3848.83,5966.90 3848.76,5968.34 3849.16,5969.14 3850.04,5969.29 3851.40,5968.81"/>
    </edge>
    <edge id=":10242023053_3" function="internal">
        <lane id=":10242023053_3_0" index="0" allow="pedestrian delivery bicycle" speed="11.13" length="10.66" shape="3846.55,5977.77 3846.65,5974.83 3847.65,5972.93 3849.30,5971.20 3851.40,5968.81"/>
    </edge>
    <edge id=":10242023053_4" function="internal">
        <lane id=":10242023053_4_0" index="0" disallow="tram rail_urban rail rail_electric rail_fast ship container cable_car subway aircraft wheelchair scooter drone" speed="22.22" length="11.98" shape="3846.55,5977.77 3844.85,5965.90"/>
    </edge>
    <edge id=":10242023053_5" function="internal">
        <lane id=":10242023053_5_0" index="0" disallow="tram rail_urban rail rail_electric rail_fast ship container cable_car subway aircraft wheelchair scooter drone" speed="22.22" length="11.86" shape="3841.68,5966.39 3843.37,5978.13"/>
    </edge>
    <edge id=":10242023053_6" function="internal">
        <lane id=":10242023053_6_0" index="0" allow="pedestrian delivery bicycle" speed="6.85" length="5.14" shape="3841.68,5966.39 3843.03,5971.35"/>
    </edge>
    <edge id=":10242023053_7" function="internal">
        <lane id=":10242023053_7_0" index="0" allow="pedestrian delivery bicycle" speed="6.85" length="10.98" shape="3843.03,5971.35 3845.09,5973.41 3847.89,5972.56 3851.40,5968.81"/>
    </edge>
    <edge id=":10242023054_0" function="internal">
        <lane id=":10242023054_0_0" index="0" allow="pedestrian delivery bicycle" speed="3.65" length="4.67" shape="3855.73,5962.99 3855.80,5961.55 3855.40,5960.75 3854.52,5960.60 3853.16,5961.08"/>
    </edge>
    <edge id=":10242023055_0" function="internal">
        <lane id=":10242023055_0_0" index="0" allow="pedestrian bicycle" speed="2.89" length="2.92" width="2.00" shape="3855.38,5945.42 3854.75,5946.06 3854.61,5946.60 3854.96,5947.04 3855.80,5947.38"/>
    </edge>
    <edge id=":10242023061_0" function="internal">
        <lane id=":10242023061_0_0" index="0" allow="pedestrian delivery bicycle" speed="5.56" length="0.62" shape="4056.97,5945.21 4056.39,5944.98"/>
    </edge>
    <edge id=":10242023061_1" function="internal">
        <lane id=":10242023061_1_0" index="0" allow="pedestrian delivery bicycle" speed="3.68" length="4.70" shape="4056.97,5945.21 4055.53,5945.42 4054.82,5945.98 4054.84,5946.88 4055.58,5948.12"/>
    </edge>
    <edge id=":10242023061_2" function="internal">
        <lane id=":10242023061_2_0" index="0" allow="pedestrian delivery bicycle" speed="5.56" length="0.21" shape="4055.39,5948.03 4055.45,5948.05 4055.49,5948.07 4055.53,5948.09 4055.58,5948.12"/>
    </edge>
    <edge id=":10242023061_3" function="internal">
        <lane id=":10242023061_3_0" index="0" allow="pedestrian delivery bicycle" speed="3.71" length="4.69" shape="4055.39,5948.03 4056.79,5947.64 4057.42,5947.00 4057.29,5946.12 4056.39,5944.98"/>
    </edge>
    <edge id=":10242023062_0" function="internal">
        <lane id=":10242023062_0_0" index="0" allow="pedestrian bicycle" speed="2.89" length="2.92" width="2.00" shape="3913.31,5935.31 3913.94,5934.67 3914.08,5934.13 3913.73,5933.69 3912.89,5933.35"/>
    </edge>
    <edge id=":10242023063_0" function="internal">
        <lane id=":10242023063_0_0" index="0" allow="pedestrian delivery bicycle" speed="3.53" length="4.16" shape="3919.67,5933.78 3918.75,5934.68 3918.54,5935.45 3919.02,5936.08 3920.20,5936.58"/>
    </edge>
    <edge id=":10272793145_0" function="internal">
        <lane id=":10272793145_0_0" index="0" disallow="tram rail_urban rail rail_electric rail_fast ship container cable_car subway aircraft wheelchair scooter drone" speed="27.78" length="0.69" shape="4087.13,5926.76 4087.04,5926.95 4086.99,5927.08 4086.95,5927.21 4086.89,5927.41"/>
    </edge>
    <edge id=":10272793145_1" function="internal">
        <lane id=":10272793145_1_0" index="0" disallow="tram rail_urban rail rail_electric rail_fast ship container cable_car subway aircraft wheelchair scooter drone" speed="3.65" length="2.34" shape="4087.13,5926.76 4087.36,5928.19 4087.93,5928.88"/>
    </edge>
    <edge id=":10272793145_4" function="internal">
        <lane id=":10272793145_4_0" index="0" disallow="tram rail_urban rail rail_electric rail_fast ship container cable_car subway aircraft wheelchair scooter drone" speed="3.65" length="2.34" shape="4087.93,5928.88 4088.82,5928.84 4090.04,5928.08"/>
    </edge>
    <edge id=":10272793145_2" function="internal">
        <lane id=":10272793145_2_0" index="0" disallow="tram rail_urban rail rail_electric rail_fast ship container cable_car subway aircraft wheelchair scooter drone" speed="27.78" length="0.23" shape="4089.96,5928.29 4089.98,5928.23 4090.00,5928.18 4090.02,5928.14 4090.04,5928.08"/>
    </edge>
    <edge id=":10272793145_3" function="internal">
        <lane id=":10272793145_3_0" index="0" disallow="tram rail_urban rail rail_electric rail_fast ship container cable_car subway aircraft wheelchair scooter drone" speed="3.65" length="2.34" shape="4089.96,5928.29 4089.53,5926.92 4088.87,5926.31"/>
    </edge>
    <edge id=":10272793145_5" function="internal">
        <lane id=":10272793145_5_0" index="0" disallow="tram rail_urban rail rail_electric rail_fast ship container cable_car subway aircraft wheelchair scooter drone" speed="3.65" length="2.34" shape="4088.87,5926.31 4087.99,5926.48 4086.89,5927.41"/>
    </edge>
    <edge id=":10277864172_0" function="internal">
        <lane id=":10277864172_0_0" index="0" disallow="tram rail_urban rail rail_electric rail_fast ship container cable_car subway aircraft wheelchair scooter drone" speed="6.05" length="7.85" shape="3333.30,6259.37 3333.17,6257.91 3332.17,6256.73 3330.32,6255.84 3327.61,6255.22"/>
    </edge>
    <edge id=":10308639480_0" function="internal">
        <lane id=":10308639480_0_0" index="0" disallow="tram rail_urban rail rail_electric rail_fast ship container cable_car subway aircraft wheelchair scooter drone" speed="2.78" length="14.41" shape="3137.85,5860.87 3131.47,5873.79"/>
    </edge>
    <edge id=":10308639480_1" function="internal">
        <lane id=":10308639480_1_0" index="0" disallow="tram rail_urban rail rail_electric rail_fast ship container cable_car subway aircraft wheelchair scooter drone" speed="2.78" length="4.67" shape="3137.85,5860.87 3138.04,5862.30 3138.58,5863.01 3139.47,5863.01 3140.72,5862.28"/>
    </edge>
    <edge id=":10308639480_2" function="internal">
        <lane id=":10308639480_2_0" index="0" disallow="tram rail_urban rail rail_electric rail_fast ship container cable_car subway aircraft wheelchair scooter drone" speed="2.78" length="14.42" shape="3134.33,5875.21 3140.72,5862.28"/>
    </edge>
    <edge id=":10308639480_3" function="internal">
        <lane id=":10308639480_3_0" index="0" disallow="tram rail_urban rail rail_electric rail_fast ship container cable_car subway aircraft wheelchair scooter drone" speed="2.78" length="14.23" shape="3134.33,5875.21 3135.54,5871.54 3135.28,5868.34 3133.55,5865.60 3130.36,5863.34"/>
    </edge>
    <edge id=":10308639480_4" function="internal">
        <lane id=":10308639480_4_0" index="0" disallow="tram rail_urban rail rail_electric rail_fast ship container cable_car subway aircraft wheelchair scooter drone" speed="2.78" length="4.67" shape="3134.33,5875.21 3134.15,5873.78 3133.61,5873.07 3132.72,5873.07 3131.47,5873.79"/>
    </edge>
    <edge id=":10308639480_5" function="internal">
        <lane id=":10308639480_5_0" index="0" disallow="tram rail_urban rail rail_electric rail_fast ship container cable_car subway aircraft wheelchair scooter drone" speed="2.78" length="9.13" shape="3128.89,5866.18 3130.95,5867.64 3132.06,5869.39 3132.24,5871.44 3131.47,5873.79"/>
    </edge>
    <edge id=":10308639480_6" function="internal">
        <lane id=":10308639480_6_0" index="0" disallow="tram rail_urban rail rail_electric rail_fast ship container cable_car subway aircraft wheelchair scooter drone" speed="2.78" length="4.67" shape="3128.89,5866.18 3130.32,5866.02 3131.05,5865.49 3131.06,5864.60 3130.36,5863.34"/>
    </edge>
    <edge id=":10308639481_0" function="internal">
        <lane id=":10308639481_0_0" index="0" disallow="tram rail_urban rail rail_electric rail_fast ship container cable_car subway aircraft wheelchair scooter drone" speed="2.78" length="4.67" shape="3082.84,5838.74 3081.40,5838.90 3080.68,5839.42 3080.67,5840.32 3081.36,5841.58"/>
    </edge>
    <edge id=":10725718075_0" function="internal">
        <lane id=":10725718075_0_0" index="0" disallow="tram rail_urban rail rail_electric rail_fast ship container cable_car subway aircraft wheelchair scooter drone" speed="11.11" length="0.42" width="4.00" shape="4083.47,5943.90 4083.71,5943.99"/>
        <lane id=":10725718075_0_1" index="1" disallow="tram rail_urban rail rail_electric rail_fast ship container cable_car subway aircraft wheelchair scooter drone" speed="11.11" length="0.42" width="4.00" shape="4084.75,5940.11 4085.10,5940.24"/>
        <lane id=":10725718075_0_2" index="2" disallow="tram rail_urban rail rail_electric rail_fast ship container cable_car subway aircraft wheelchair scooter drone" speed="11.11" length="0.42" width="4.00" shape="4086.04,5936.33 4086.49,5936.49"/>
        <lane id=":10725718075_0_3" index="3" disallow="tram rail_urban rail rail_electric rail_fast ship container cable_car subway aircraft wheelchair scooter drone" speed="11.11" length="0.42" width="4.00" shape="4087.32,5932.54 4087.88,5932.74"/>
    </edge>
    <edge id=":10879528613_0" function="internal">
        <lane id=":10879528613_0_0" index="0" disallow="tram rail_urban rail rail_electric rail_fast ship container cable_car subway aircraft wheelchair scooter drone" speed="22.22" length="14.59" shape="3348.94,5924.21 3345.89,5922.22 3343.27,5919.76 3340.81,5917.07 3338.26,5914.39"/>
    </edge>
    <edge id=":10879528613_1" function="internal">
        <lane id=":10879528613_1_0" index="0" disallow="tram rail_urban rail rail_electric rail_fast ship container cable_car subway aircraft wheelchair scooter drone" speed="6.43" length="13.44" shape="3348.94,5924.21 3344.06,5922.17 3340.81,5921.76 3339.19,5922.98 3339.21,5925.83"/>
    </edge>
    <edge id=":10879528613_2" function="internal">
        <lane id=":10879528613_2_0" index="0" disallow="tram rail_urban rail rail_electric rail_fast ship container cable_car subway aircraft wheelchair scooter drone" speed="14.46" length="11.74" shape="3342.33,5925.12 3341.73,5921.88 3341.22,5919.23 3340.25,5916.85 3338.26,5914.39"/>
    </edge>
    <edge id=":10879528613_3" function="internal">
        <lane id=":10879528613_3_0" index="0" disallow="tram rail_urban rail rail_electric rail_fast ship container cable_car subway aircraft wheelchair scooter drone" speed="13.35" length="9.97" shape="3336.03,5916.68 3337.84,5918.87 3338.52,5920.75 3338.75,5922.88 3339.21,5925.83"/>
    </edge>
    <edge id=":10923487473_0" function="internal">
        <lane id=":10923487473_0_0" index="0" disallow="tram rail_urban rail rail_electric rail_fast ship container cable_car subway aircraft wheelchair scooter drone" speed="3.65" length="4.67" shape="3094.45,5668.09 3094.55,5669.53 3095.05,5670.27 3095.94,5670.32 3097.23,5669.67"/>
    </edge>
    <edge id=":10925691263_0" function="internal">
        <lane id=":10925691263_0_0" index="0" disallow="tram rail_urban rail rail_electric rail_fast ship container cable_car subway aircraft wheelchair scooter drone" speed="6.81" length="10.49" shape="3187.62,6537.19 3188.21,6540.03 3189.57,6541.94 3191.70,6542.92 3194.60,6542.97"/>
    </edge>
    <edge id=":10945603760_0" function="internal">
        <lane id=":10945603760_0_0" index="0" disallow="tram rail_urban rail rail_electric rail_fast ship container cable_car subway aircraft wheelchair scooter drone" speed="6.00" length="9.08" shape="3316.39,6012.43 3314.33,6010.84 3313.48,6009.09 3313.84,6007.18 3315.40,6005.11"/>
    </edge>
    <edge id=":10945603760_1" function="internal">
        <lane id=":10945603760_1_0" index="0" disallow="tram rail_urban rail rail_electric rail_fast ship container cable_car subway aircraft wheelchair scooter drone" speed="7.79" length="10.59" shape="3305.01,6015.43 3307.01,6014.04 3309.31,6013.54 3311.91,6013.93 3314.81,6015.21"/>
    </edge>
    <edge id=":10945603760_2" function="internal">
        <lane id=":10945603760_2_0" index="0" disallow="tram rail_urban rail rail_electric rail_fast ship container cable_car subway aircraft wheelchair scooter drone" speed="27.78" length="14.65" shape="3305.01,6015.43 3315.40,6005.11"/>
        <lane id=":10945603760_2_1" index="1" disallow="tram rail_urban rail rail_electric rail_fast ship container cable_car subway aircraft wheelchair scooter drone" speed="27.78" length="14.65" shape="3302.75,6013.16 3313.15,6002.84"/>
    </edge>
    <edge id=":10945603764_0" function="internal">
        <lane id=":10945603764_0_0" index="0" disallow="tram rail_urban rail rail_electric rail_fast ship container cable_car subway aircraft wheelchair scooter drone" speed="6.81" length="9.22" shape="3287.72,6014.50 3285.78,6016.21 3283.78,6016.99 3281.70,6016.83 3279.55,6015.75"/>
    </edge>
    <edge id=":10945603764_1" function="internal">
        <lane id=":10945603764_1_0" index="0" disallow="tram rail_urban rail rail_electric rail_fast ship container cable_car subway aircraft wheelchair scooter drone" speed="27.78" length="14.44" shape="3287.72,6014.50 3285.02,6017.81 3283.44,6020.27 3282.09,6022.90 3280.11,6026.71"/>
        <lane id=":10945603764_1_1" index="1" disallow="tram rail_urban rail rail_electric rail_fast ship container cable_car subway aircraft wheelchair scooter drone" speed="27.78" length="14.44" shape="3290.58,6016.08 3287.88,6019.38 3286.27,6021.83 3284.91,6024.45 3282.91,6028.25"/>
    </edge>
    <edge id=":10945603764_3" function="internal">
        <lane id=":10945603764_3_0" index="0" disallow="tram rail_urban rail rail_electric rail_fast ship container cable_car subway aircraft wheelchair scooter drone" speed="7.00" length="9.69" shape="3277.68,6018.35 3279.73,6020.21 3280.81,6022.23 3280.94,6024.39 3280.11,6026.71"/>
    </edge>
    <edge id=":10945603764_4" function="internal">
        <lane id=":10945603764_4_0" index="0" disallow="tram rail_urban rail rail_electric rail_fast ship container cable_car subway aircraft wheelchair scooter drone" speed="3.65" length="4.67" shape="3277.68,6018.35 3279.12,6018.40 3279.91,6017.98 3280.05,6017.10 3279.55,6015.75"/>
    </edge>
    <edge id=":10945603765_0" function="internal">
        <lane id=":10945603765_0_0" index="0" disallow="tram rail_urban rail rail_electric rail_fast ship container cable_car subway aircraft wheelchair scooter drone" speed="3.65" length="4.67" shape="3248.29,5993.62 3246.85,5993.58 3246.06,5994.01 3245.93,5994.89 3246.45,5996.24"/>
    </edge>
    <edge id=":11041630498_0" function="internal">
        <lane id=":11041630498_0_0" index="0" allow="pedestrian delivery bicycle" speed="5.56" length="0.30" shape="3722.98,5424.08 3722.73,5424.25"/>
    </edge>
    <edge id=":11041630498_1" function="internal">
        <lane id=":11041630498_1_0" index="0" allow="pedestrian delivery bicycle" speed="5.56" length="0.30" shape="3724.56,5426.88 3724.81,5426.71"/>
    </edge>
    <edge id=":11052166832_0" function="internal">
        <lane id=":11052166832_0_0" index="0" allow="pedestrian delivery bicycle" speed="4.99" length="5.05" shape="3255.24,6077.47 3254.68,6078.75 3253.86,6079.53 3252.76,6079.80 3251.39,6079.57"/>
    </edge>
    <edge id=":11052166832_1" function="internal">
        <lane id=":11052166832_1_0" index="0" disallow="tram rail_urban rail rail_electric rail_fast ship container cable_car subway aircraft wheelchair scooter drone" speed="27.78" length="9.41" shape="3255.24,6077.47 3252.77,6086.55"/>
        <lane id=":11052166832_1_1" index="1" disallow="tram rail_urban rail rail_electric rail_fast ship container cable_car subway aircraft wheelchair scooter drone" speed="27.78" length="9.41" shape="3258.32,6078.31 3255.86,6087.39"/>
    </edge>
    <edge id=":11052166832_3" function="internal">
        <lane id=":11052166832_3_0" index="0" allow="pedestrian delivery bicycle" speed="5.18" length="5.17" shape="3250.41,6082.62 3251.74,6083.24 3252.58,6084.10 3252.92,6085.20 3252.77,6086.55"/>
    </edge>
    <edge id=":11052167692_0" function="internal">
        <lane id=":11052167692_0_0" index="0" allow="pedestrian delivery bicycle" speed="3.65" length="4.67" shape="3111.73,6138.51 3110.53,6139.31 3110.13,6140.11 3110.53,6140.91 3111.73,6141.71"/>
    </edge>
    <edge id=":11052175418_0" function="internal">
        <lane id=":11052175418_0_0" index="0" disallow="tram rail_urban rail rail_electric rail_fast ship container cable_car subway aircraft wheelchair scooter drone" speed="6.46" length="9.03" shape="3319.01,5978.67 3317.13,5980.29 3315.19,5980.91 3313.20,5980.52 3311.14,5979.13"/>
    </edge>
    <edge id=":11052175418_1" function="internal">
        <lane id=":11052175418_1_0" index="0" disallow="tram rail_urban rail rail_electric rail_fast ship container cable_car subway aircraft wheelchair scooter drone" speed="27.78" length="14.40" shape="3319.01,5978.67 3309.54,5989.52"/>
        <lane id=":11052175418_1_1" index="1" disallow="tram rail_urban rail rail_electric rail_fast ship container cable_car subway aircraft wheelchair scooter drone" speed="27.78" length="14.40" shape="3321.42,5980.78 3311.95,5991.63"/>
    </edge>
    <edge id=":11052175418_3" function="internal">
        <lane id=":11052175418_3_0" index="0" disallow="tram rail_urban rail rail_electric rail_fast ship container cable_car subway aircraft wheelchair scooter drone" speed="6.59" length="9.13" shape="3308.99,5981.50 3310.60,5983.44 3311.23,5985.42 3310.88,5987.45 3309.54,5989.52"/>
    </edge>
    <edge id=":11052175420_0" function="internal">
        <lane id=":11052175420_0_0" index="0" disallow="tram rail_urban rail rail_electric rail_fast ship container cable_car subway aircraft wheelchair scooter drone" speed="6.95" length="10.15" shape="3288.67,5939.54 3285.75,5939.93 3283.43,5939.41 3281.69,5937.99 3280.56,5935.67"/>
    </edge>
    <edge id=":11052175420_1" function="internal">
        <lane id=":11052175420_1_0" index="0" disallow="tram rail_urban rail rail_electric rail_fast ship container cable_car subway aircraft wheelchair scooter drone" speed="13.89" length="15.52" shape="3288.67,5939.54 3273.65,5943.43"/>
    </edge>
    <edge id=":11052175420_2" function="internal">
        <lane id=":11052175420_2_0" index="0" disallow="tram rail_urban rail rail_electric rail_fast ship container cable_car subway aircraft wheelchair scooter drone" speed="7.61" length="4.37" shape="3288.67,5939.54 3284.64,5941.23"/>
    </edge>
    <edge id=":11052175420_12" function="internal">
        <lane id=":11052175420_12_0" index="0" disallow="tram rail_urban rail rail_electric rail_fast ship container cable_car subway aircraft wheelchair scooter drone" speed="7.61" length="10.94" shape="3284.64,5941.23 3282.49,5943.72 3282.22,5946.99 3283.84,5951.05"/>
    </edge>
    <edge id=":11052175420_3" function="internal">
        <lane id=":11052175420_3_0" index="0" disallow="tram rail_urban rail rail_electric rail_fast ship container cable_car subway aircraft wheelchair scooter drone" speed="6.01" length="9.08" shape="3286.61,5949.46 3285.66,5947.05 3285.81,5945.11 3287.09,5943.64 3289.48,5942.63"/>
    </edge>
    <edge id=":11052175420_4" function="internal">
        <lane id=":11052175420_4_0" index="0" disallow="tram rail_urban rail rail_electric rail_fast ship container cable_car subway aircraft wheelchair scooter drone" speed="13.89" length="15.09" shape="3286.61,5949.46 3284.82,5946.15 3283.20,5942.73 3281.76,5939.23 3280.56,5935.67"/>
    </edge>
    <edge id=":11052175420_5" function="internal">
        <lane id=":11052175420_5_0" index="0" disallow="tram rail_urban rail rail_electric rail_fast ship container cable_car subway aircraft wheelchair scooter drone" speed="9.29" length="15.50" shape="3286.61,5949.46 3284.05,5946.02 3281.03,5943.87 3277.56,5943.01 3273.65,5943.43"/>
    </edge>
    <edge id=":11052175420_6" function="internal">
        <lane id=":11052175420_6_0" index="0" disallow="tram rail_urban rail rail_electric rail_fast ship container cable_car subway aircraft wheelchair scooter drone" speed="8.01" length="11.30" shape="3274.45,5946.53 3277.26,5946.24 3279.76,5946.90 3281.95,5948.50 3283.84,5951.05"/>
    </edge>
    <edge id=":11052175420_7" function="internal">
        <lane id=":11052175420_7_0" index="0" disallow="tram rail_urban rail rail_electric rail_fast ship container cable_car subway aircraft wheelchair scooter drone" speed="13.89" length="15.53" shape="3274.45,5946.53 3289.48,5942.63"/>
    </edge>
    <edge id=":11052175420_8" function="internal">
        <lane id=":11052175420_8_0" index="0" disallow="tram rail_urban rail rail_electric rail_fast ship container cable_car subway aircraft wheelchair scooter drone" speed="7.93" length="4.11" shape="3274.45,5946.53 3278.10,5945.01 3278.21,5944.90"/>
    </edge>
    <edge id=":11052175420_13" function="internal">
        <lane id=":11052175420_13_0" index="0" disallow="tram rail_urban rail rail_electric rail_fast ship container cable_car subway aircraft wheelchair scooter drone" speed="7.93" length="10.24" shape="3278.21,5944.90 3280.33,5942.69 3281.15,5939.58 3280.56,5935.67"/>
    </edge>
    <edge id=":11052175420_9" function="internal">
        <lane id=":11052175420_9_0" index="0" disallow="tram rail_urban rail rail_electric rail_fast ship container cable_car subway aircraft wheelchair scooter drone" speed="6.42" length="9.04" shape="3277.49,5936.59 3277.87,5939.05 3277.35,5941.02 3275.95,5942.48 3273.65,5943.43"/>
    </edge>
    <edge id=":11052175420_10" function="internal">
        <lane id=":11052175420_10_0" index="0" disallow="tram rail_urban rail rail_electric rail_fast ship container cable_car subway aircraft wheelchair scooter drone" speed="13.89" length="15.81" shape="3277.49,5936.59 3278.75,5940.26 3280.28,5943.99 3282.00,5947.63 3283.84,5951.05"/>
    </edge>
    <edge id=":11052175420_11" function="internal">
        <lane id=":11052175420_11_0" index="0" disallow="tram rail_urban rail rail_electric rail_fast ship container cable_car subway aircraft wheelchair scooter drone" speed="8.37" length="15.17" shape="3277.49,5936.59 3279.21,5940.16 3281.78,5942.35 3285.20,5943.18 3289.48,5942.63"/>
    </edge>
    <edge id=":11052175421_0" function="internal">
        <lane id=":11052175421_0_0" index="0" disallow="tram rail_urban rail rail_electric rail_fast ship container cable_car subway aircraft wheelchair scooter drone" speed="3.65" length="4.67" shape="3272.20,5908.05 3271.09,5907.13 3270.21,5906.98 3269.56,5907.59 3269.14,5908.97"/>
    </edge>
    <edge id=":11054159427_0" function="internal">
        <lane id=":11054159427_0_0" index="0" disallow="tram rail_urban rail rail_electric rail_fast ship container cable_car subway aircraft wheelchair scooter drone" speed="20.84" length="0.57" shape="4093.70,5911.91 4093.69,5912.08 4093.67,5912.19 4093.63,5912.30 4093.56,5912.46"/>
    </edge>
    <edge id=":11054159427_1" function="internal">
        <lane id=":11054159427_1_0" index="0" disallow="tram rail_urban rail rail_electric rail_fast ship container cable_car subway aircraft wheelchair scooter drone" speed="10.24" length="1.71" shape="4096.48,5913.77 4096.69,5913.31 4096.80,5912.97 4096.86,5912.63 4096.90,5912.12"/>
    </edge>
    <edge id=":11066462380_0" function="internal">
        <lane id=":11066462380_0_0" index="0" allow="pedestrian delivery bicycle" speed="3.65" length="4.67" shape="3661.51,5757.64 3662.94,5757.42 3663.63,5756.86 3663.60,5755.97 3662.85,5754.74"/>
    </edge>
    <edge id=":11066462383_0" function="internal">
        <lane id=":11066462383_0_0" index="0" allow="pedestrian delivery bicycle" speed="7.09" length="11.35" shape="3602.38,5714.91 3599.80,5712.30 3598.51,5709.83 3598.53,5707.49 3599.84,5705.30"/>
    </edge>
    <edge id=":11066462383_1" function="internal">
        <lane id=":11066462383_1_0" index="0" allow="pedestrian delivery bicycle" speed="3.65" length="4.67" shape="3602.38,5714.91 3600.94,5714.76 3600.12,5715.12 3599.92,5715.99 3600.33,5717.37"/>
    </edge>
    <edge id=":11066462383_2" function="internal">
        <lane id=":11066462383_2_0" index="0" allow="pedestrian delivery bicycle" speed="4.71" length="5.65" shape="3596.23,5718.70 3596.87,5717.16 3597.76,5716.42 3598.92,5716.49 3600.33,5717.37"/>
    </edge>
    <edge id=":11066462383_3" function="internal">
        <lane id=":11066462383_3_0" index="0" disallow="tram rail_urban rail rail_electric rail_fast ship container cable_car subway aircraft wheelchair scooter drone" speed="18.58" length="15.01" shape="3596.23,5718.70 3596.87,5714.49 3596.93,5711.39 3597.54,5708.60 3599.84,5705.30"/>