<?xml version="1.0" encoding="UTF-8"?>

<!-- generated on 2026-07-07T19:20:09.942861+05:30 by Eclipse SUMO netedit 1.27.1
<neteditConfiguration xmlns:xsi="http://www.w3.org/2001/XMLSchema-instance" xsi:noNamespaceSchemaLocation="http://sumo.dlr.de/xsd/neteditConfiguration.xsd">

    <input>
        <sumo-net-file value="smart5_main.net.xml"/>
    </input>

    <output>
        <output-file value="smart5_main.net.xml"/>
    </output>

    <processing>
        <geometry.min-radius.fix.railways value="false"/>
        <geometry.avoid-overlap value="false"/>
        <geometry.max-grade.fix value="false"/>
        <offset.disable-normalization value="true"/>
        <lefthand value="1"/>
    </processing>

    <junctions>
        <no-turnarounds value="true"/>
    </junctions>

</neteditConfiguration>
-->

<net version="1.20" junctionCornerDetail="5" lefthand="true" limitTurnSpeed="5.50" avoidOverlap="0" xmlns:xsi="http://www.w3.org/2001/XMLSchema-instance" xsi:noNamespaceSchemaLocation="http://sumo.dlr.de/xsd/net_file.xsd">

    <location netOffset="-269910.05,-2111688.93" convBoundary="2908.99,5304.50,4791.60,6542.00" origBoundary="72.803639,19.086283,72.941528,19.199953" projParameter="+proj=utm +zone=43 +ellps=WGS84 +datum=WGS84 +units=m +no_defs"/>

    <type id="highway.primary" priority="12" numLanes="2" speed="27.78" disallow="tram rail_urban rail rail_electric rail_fast ship container cable_car subway aircraft wheelchair scooter drone" oneway="0"/>
    <type id="highway.primary_link" priority="7" numLanes="1" speed="22.22" disallow="tram rail_urban rail rail_electric rail_fast ship container cable_car subway aircraft wheelchair scooter drone" oneway="0"/>
    <type id="highway.residential" priority="3" numLanes="1" speed="13.89" disallow="tram rail_urban rail rail_electric rail_fast ship container cable_car subway aircraft wheelchair scooter drone" oneway="0"/>
    <type id="highway.secondary" priority="11" numLanes="1" speed="27.78" disallow="tram rail_urban rail rail_electric rail_fast ship container cable_car subway aircraft wheelchair scooter drone" oneway="0"/>
    <type id="highway.service" priority="1" numLanes="1" speed="5.56" allow="pedestrian delivery bicycle" oneway="0"/>
    <type id="highway.tertiary" priority="10" numLanes="1" speed="22.22" disallow="tram rail_urban rail rail_electric rail_fast ship container cable_car subway aircraft wheelchair scooter drone" oneway="0"/>

    <edge id=":10277864172_0" function="internal">
        <lane id=":10277864172_0_0" index="0" disallow="tram rail_urban rail rail_electric rail_fast ship container cable_car subway aircraft wheelchair scooter drone" speed="6.05" length="7.85" shape="3333.30,6259.37 3333.17,6257.91 3332.17,6256.73 3330.32,6255.84 3327.61,6255.22"/>
    </edge>
    <edge id=":10725718075_0" function="internal">
        <lane id=":10725718075_0_0" index="0" disallow="tram rail_urban rail rail_electric rail_fast ship container cable_car subway aircraft wheelchair scooter drone" speed="22.22" length="0.42" width="4.00" shape="4083.47,5943.90 4083.71,5943.99"/>
        <lane id=":10725718075_0_1" index="1" disallow="tram rail_urban rail rail_electric rail_fast ship container cable_car subway aircraft wheelchair scooter drone" speed="22.22" length="0.42" width="4.00" shape="4084.75,5940.11 4085.10,5940.24"/>
        <lane id=":10725718075_0_2" index="2" disallow="tram rail_urban rail rail_electric rail_fast ship container cable_car subway aircraft wheelchair scooter drone" speed="22.22" length="0.42" width="4.00" shape="4086.04,5936.33 4086.49,5936.49"/>
        <lane id=":10725718075_0_3" index="3" disallow="tram rail_urban rail rail_electric rail_fast ship container cable_car subway aircraft wheelchair scooter drone" speed="22.22" length="0.42" width="4.00" shape="4087.32,5932.54 4087.88,5932.74"/>
    </edge>
    <edge id=":10879528613_0" function="internal">
        <lane id=":10879528613_0_0" index="0" disallow="tram rail_urban rail rail_electric rail_fast ship container cable_car subway aircraft wheelchair scooter drone" speed="13.89" length="14.59" shape="3348.94,5924.21 3345.89,5922.22 3343.27,5919.76 3340.81,5917.07 3338.26,5914.39"/>
    </edge>
    <edge id=":10879528613_1" function="internal">
        <lane id=":10879528613_1_0" index="0" disallow="tram rail_urban rail rail_electric rail_fast ship container cable_car subway aircraft wheelchair scooter drone" speed="6.43" length="13.44" shape="3348.94,5924.21 3344.06,5922.17 3340.81,5921.76 3339.19,5922.98 3339.21,5925.83"/>
    </edge>
    <edge id=":10879528613_2" function="internal">
        <lane id=":10879528613_2_0" index="0" disallow="tram rail_urban rail rail_electric rail_fast ship container cable_car subway aircraft wheelchair scooter drone" speed="13.89" length="11.74" shape="3342.33,5925.12 3341.73,5921.88 3341.22,5919.23 3340.25,5916.85 3338.26,5914.39"/>
    </edge>
    <edge id=":10879528613_3" function="internal">
        <lane id=":10879528613_3_0" index="0" disallow="tram rail_urban rail rail_electric rail_fast ship container cable_car subway aircraft wheelchair scooter drone" speed="13.35" length="9.97" shape="3336.03,5916.68 3337.84,5918.87 3338.52,5920.75 3338.75,5922.88 3339.21,5925.83"/>
    </edge>
    <edge id=":10925691263_0" function="internal">
        <lane id=":10925691263_0_0" index="0" disallow="tram rail_urban rail rail_electric rail_fast ship container cable_car subway aircraft wheelchair scooter drone" speed="6.81" length="10.49" shape="3187.62,6537.19 3188.21,6540.03 3189.57,6541.94 3191.70,6542.92 3194.60,6542.97"/>
    </edge>
    <edge id=":10945603760_0" function="internal">
        <lane id=":10945603760_0_0" index="0" disallow="tram rail_urban rail rail_electric rail_fast ship container cable_car subway aircraft wheelchair scooter drone" speed="13.89" length="0.10" shape="3309.57,6010.91 3309.57,6010.91"/>
        <lane id=":10945603760_0_1" index="1" disallow="tram rail_urban rail rail_electric rail_fast ship container cable_car subway aircraft wheelchair scooter drone" speed="13.89" length="0.10" shape="3307.31,6008.63 3307.31,6008.63"/>
    </edge>
    <edge id=":10945603764_0" function="internal">
        <lane id=":10945603764_0_0" index="0" disallow="tram rail_urban rail rail_electric rail_fast ship container cable_car subway aircraft wheelchair scooter drone" speed="13.89" length="0.30" shape="3283.47,6020.59 3283.33,6020.85"/>
        <lane id=":10945603764_0_1" index="1" disallow="tram rail_urban rail rail_electric rail_fast ship container cable_car subway aircraft wheelchair scooter drone" speed="13.89" length="0.30" shape="3286.27,6022.13 3286.13,6022.39"/>
    </edge>
    <edge id=":11052166832_0" function="internal">
        <lane id=":11052166832_0_0" index="0" disallow="tram rail_urban rail rail_electric rail_fast ship container cable_car subway aircraft wheelchair scooter drone" speed="13.89" length="0.10" shape="3253.97,6082.14 3253.97,6082.14"/>
        <lane id=":11052166832_0_1" index="1" disallow="tram rail_urban rail rail_electric rail_fast ship container cable_car subway aircraft wheelchair scooter drone" speed="13.89" length="0.10" shape="3257.05,6082.98 3257.05,6082.98"/>
    </edge>
    <edge id=":11052175418_0" function="internal">
        <lane id=":11052175418_0_0" index="0" disallow="tram rail_urban rail rail_electric rail_fast ship container cable_car subway aircraft wheelchair scooter drone" speed="6.46" length="9.03" shape="3319.01,5978.67 3317.13,5980.29 3315.19,5980.91 3313.20,5980.52 3311.14,5979.13"/>
    </edge>
    <edge id=":11052175418_1" function="internal">
        <lane id=":11052175418_1_0" index="0" disallow="tram rail_urban rail rail_electric rail_fast ship container cable_car subway aircraft wheelchair scooter drone" speed="13.89" length="14.40" shape="3319.01,5978.67 3309.54,5989.52"/>
        <lane id=":11052175418_1_1" index="1" disallow="tram rail_urban rail rail_electric rail_fast ship container cable_car subway aircraft wheelchair scooter drone" speed="13.89" length="14.40" shape="3321.42,5980.78 3311.95,5991.63"/>
    </edge>
    <edge id=":11052175418_3" function="internal">
        <lane id=":11052175418_3_0" index="0" disallow="tram rail_urban rail rail_electric rail_fast ship container cable_car subway aircraft wheelchair scooter drone" speed="6.59" length="9.13" shape="3308.99,5981.50 3310.60,5983.44 3311.23,5985.42 3310.88,5987.45 3309.54,5989.52"/>
    </edge>
    <edge id=":11052175420_0" function="internal">
        <lane id=":11052175420_0_0" index="0" disallow="tram rail_urban rail rail_electric rail_fast ship container cable_car subway aircraft wheelchair scooter drone" speed="13.89" length="14.62" shape="3288.67,5939.54 3274.52,5943.21"/>
    </edge>
    <edge id=":11052175420_1" function="internal">
        <lane id=":11052175420_1_0" index="0" disallow="tram rail_urban rail rail_electric rail_fast ship container cable_car subway aircraft wheelchair scooter drone" speed="7.61" length="4.37" shape="3288.67,5939.54 3284.64,5941.23"/>
    </edge>
    <edge id=":11052175420_6" function="internal">
        <lane id=":11052175420_6_0" index="0" disallow="tram rail_urban rail rail_electric rail_fast ship container cable_car subway aircraft wheelchair scooter drone" speed="7.61" length="10.94" shape="3284.64,5941.23 3282.49,5943.72 3282.22,5946.99 3283.84,5951.05"/>
    </edge>
    <edge id=":11052175420_2" function="internal">
        <lane id=":11052175420_2_0" index="0" disallow="tram rail_urban rail rail_electric rail_fast ship container cable_car subway aircraft wheelchair scooter drone" speed="6.01" length="9.08" shape="3286.61,5949.46 3285.66,5947.05 3285.81,5945.11 3287.09,5943.64 3289.48,5942.63"/>
    </edge>
    <edge id=":11052175420_3" function="internal">
        <lane id=":11052175420_3_0" index="0" disallow="tram rail_urban rail rail_electric rail_fast ship container cable_car subway aircraft wheelchair scooter drone" speed="9.07" length="14.75" shape="3286.61,5949.46 3284.10,5946.01 3281.25,5943.81 3278.05,5942.88 3274.52,5943.21"/>
    </edge>
    <edge id=":11052175420_4" function="internal">
        <lane id=":11052175420_4_0" index="0" disallow="tram rail_urban rail rail_electric rail_fast ship container cable_car subway aircraft wheelchair scooter drone" speed="7.75" length="10.54" shape="3275.32,5946.31 3277.74,5946.12 3279.97,5946.84 3282.00,5948.49 3283.84,5951.05"/>
    </edge>
    <edge id=":11052175420_5" function="internal">
        <lane id=":11052175420_5_0" index="0" disallow="tram rail_urban rail rail_electric rail_fast ship container cable_car subway aircraft wheelchair scooter drone" speed="13.89" length="14.63" shape="3275.32,5946.31 3289.48,5942.63"/>
    </edge>
    <edge id=":11066462383_0" function="internal">
        <lane id=":11066462383_0_0" index="0" disallow="tram rail_urban rail rail_electric rail_fast ship container cable_car subway aircraft wheelchair scooter drone" speed="13.89" length="1.59" shape="3599.54,5705.90 3599.60,5705.68 3599.67,5705.53 3599.76,5705.39 3599.91,5705.22"/>
        <lane id=":11066462383_0_1" index="1" disallow="tram rail_urban rail rail_electric rail_fast ship container cable_car subway aircraft wheelchair scooter drone" speed="7.83" length="1.59" shape="3596.44,5705.10 3596.63,5704.42 3596.82,5703.97 3597.09,5703.57 3597.56,5703.05"/>
    </edge>
    <edge id=":11066534132_0" function="internal">
        <lane id=":11066534132_0_0" index="0" disallow="tram rail_urban rail rail_electric rail_fast ship container cable_car subway aircraft wheelchair scooter drone" speed="13.89" length="0.30" shape="3153.37,5811.64 3153.10,5811.51"/>
    </edge>
    <edge id=":11066534132_1" function="internal">
        <lane id=":11066534132_1_0" index="0" disallow="tram rail_urban rail rail_electric rail_fast ship container cable_car subway aircraft wheelchair scooter drone" speed="3.65" length="2.34" shape="3153.37,5811.64 3151.94,5811.81 3151.22,5812.34"/>
    </edge>
    <edge id=":11066534132_4" function="internal">
        <lane id=":11066534132_4_0" index="0" disallow="tram rail_urban rail rail_electric rail_fast ship container cable_car subway aircraft wheelchair scooter drone" speed="3.65" length="2.34" shape="3151.22,5812.34 3151.21,5813.24 3151.92,5814.49"/>
    </edge>
    <edge id=":11066534132_2" function="internal">
        <lane id=":11066534132_2_0" index="0" disallow="tram rail_urban rail rail_electric rail_fast ship container cable_car subway aircraft wheelchair scooter drone" speed="13.89" length="0.30" shape="3151.65,5814.36 3151.92,5814.49"/>
    </edge>
    <edge id=":11066534132_3" function="internal">
        <lane id=":11066534132_3_0" index="0" disallow="tram rail_urban rail rail_electric rail_fast ship container cable_car subway aircraft wheelchair scooter drone" speed="3.65" length="2.34" shape="3151.65,5814.36 3153.08,5814.19 3153.80,5813.66"/>
    </edge>
    <edge id=":11066534132_5" function="internal">
        <lane id=":11066534132_5_0" index="0" disallow="tram rail_urban rail rail_electric rail_fast ship container cable_car subway aircraft wheelchair scooter drone" speed="3.65" length="2.34" shape="3153.80,5813.66 3153.81,5812.76 3153.10,5811.51"/>
    </edge>
    <edge id=":11066579279_0" function="internal">
        <lane id=":11066579279_0_0" index="0" disallow="tram rail_urban rail rail_electric rail_fast ship container cable_car subway aircraft wheelchair scooter drone" speed="13.89" length="0.10" shape="3713.62,5479.65 3713.62,5479.65"/>
        <lane id=":11066579279_0_1" index="1" disallow="tram rail_urban rail rail_electric rail_fast ship container cable_car subway aircraft wheelchair scooter drone" speed="13.89" length="0.10" shape="3710.42,5479.55 3710.42,5479.55"/>
    </edge>
    <edge id=":12083032239_0" function="internal">
        <lane id=":12083032239_0_0" index="0" disallow="tram rail_urban rail rail_electric rail_fast ship container cable_car subway aircraft wheelchair scooter drone" speed="13.89" length="0.10" shape="3204.83,5833.31 3204.83,5833.31"/>
    </edge>
    <edge id=":12083032239_1" function="internal">
        <lane id=":12083032239_1_0" index="0" disallow="tram rail_urban rail rail_electric rail_fast ship container cable_car subway aircraft wheelchair scooter drone" speed="3.65" length="2.34" shape="3204.83,5833.31 3203.44,5833.69 3202.80,5834.32"/>
    </edge>
    <edge id=":12083032239_4" function="internal">
        <lane id=":12083032239_4_0" index="0" disallow="tram rail_urban rail rail_electric rail_fast ship container cable_car subway aircraft wheelchair scooter drone" speed="3.65" length="2.34" shape="3202.80,5834.32 3202.93,5835.21 3203.81,5836.35"/>
    </edge>
    <edge id=":12083032239_2" function="internal">
        <lane id=":12083032239_2_0" index="0" disallow="tram rail_urban rail rail_electric rail_fast ship container cable_car subway aircraft wheelchair scooter drone" speed="13.89" length="0.10" shape="3203.81,5836.35 3203.81,5836.35"/>
    </edge>
    <edge id=":12083032239_3" function="internal">
        <lane id=":12083032239_3_0" index="0" disallow="tram rail_urban rail rail_electric rail_fast ship container cable_car subway aircraft wheelchair scooter drone" speed="3.65" length="2.34" shape="3203.81,5836.35 3205.20,5835.97 3205.84,5835.34"/>
    </edge>
    <edge id=":12083032239_5" function="internal">
        <lane id=":12083032239_5_0" index="0" disallow="tram rail_urban rail rail_electric rail_fast ship container cable_car subway aircraft wheelchair scooter drone" speed="3.65" length="2.34" shape="3205.84,5835.34 3205.71,5834.45 3204.83,5833.31"/>
    </edge>
    <edge id=":12270455148_0" function="internal">
        <lane id=":12270455148_0_0" index="0" disallow="tram rail_urban rail rail_electric rail_fast ship container cable_car subway aircraft wheelchair scooter drone" speed="13.89" length="0.27" shape="3246.02,6193.40 3246.05,6193.17"/>
        <lane id=":12270455148_0_1" index="1" disallow="tram rail_urban rail rail_electric rail_fast ship container cable_car subway aircraft wheelchair scooter drone" speed="13.89" length="0.27" shape="3242.85,6193.01 3242.89,6192.70"/>
    </edge>
    <edge id=":12311841439_0" function="internal">
        <lane id=":12311841439_0_0" index="0" disallow="tram rail_urban rail rail_electric rail_fast ship container cable_car subway aircraft wheelchair scooter drone" speed="13.89" length="6.06" shape="3261.21,6245.87 3259.45,6246.12 3258.22,6246.12 3256.98,6245.94 3255.20,6245.67"/>
    </edge>
    <edge id=":12311841439_1" function="internal">
        <lane id=":12311841439_1_0" index="0" disallow="tram rail_urban rail rail_electric rail_fast ship container cable_car subway aircraft wheelchair scooter drone" speed="5.05" length="3.81" shape="3261.21,6245.87 3258.45,6246.64 3257.68,6247.18"/>
    </edge>
    <edge id=":12311841439_3" function="internal">
        <lane id=":12311841439_3_0" index="0" disallow="tram rail_urban rail rail_electric rail_fast ship container cable_car subway aircraft wheelchair scooter drone" speed="5.05" length="3.94" shape="3257.68,6247.18 3257.04,6247.63 3256.99,6248.85 3258.28,6250.29"/>
    </edge>
    <edge id=":12311841439_2" function="internal">
        <lane id=":12311841439_2_0" index="0" disallow="tram rail_urban rail rail_electric rail_fast ship container cable_car subway aircraft wheelchair scooter drone" speed="8.84" length="3.84" shape="3254.81,6248.85 3255.94,6249.01 3256.69,6249.22 3257.38,6249.61 3258.28,6250.29"/>
    </edge>
    <edge id=":1248157165_0" function="internal">
        <lane id=":1248157165_0_0" index="0" disallow="tram rail_urban rail rail_electric rail_fast ship container cable_car subway aircraft wheelchair scooter drone" speed="22.22" length="0.79" width="4.00" shape="4181.90,5942.66 4181.53,5942.48 4181.28,5942.37 4181.02,5942.27 4180.63,5942.13"/>
        <lane id=":1248157165_0_1" index="1" disallow="tram rail_urban rail rail_electric rail_fast ship container cable_car subway aircraft wheelchair scooter drone" speed="22.22" length="0.79" width="4.00" shape="4180.17,5946.27 4179.91,5946.14 4179.72,5946.06 4179.54,5945.99 4179.26,5945.89"/>
        <lane id=":1248157165_0_2" index="2" disallow="tram rail_urban rail rail_electric rail_fast ship container cable_car subway aircraft wheelchair scooter drone" speed="22.22" length="0.79" width="4.00" shape="4178.44,5949.87 4178.28,5949.80 4178.17,5949.75 4178.06,5949.71 4177.90,5949.65"/>
        <lane id=":1248157165_0_3" index="3" disallow="tram rail_urban rail rail_electric rail_fast ship container cable_car subway aircraft wheelchair scooter drone" speed="22.22" length="0.79" width="4.00" shape="4176.71,5953.48 4176.66,5953.45 4176.62,5953.44 4176.58,5953.42 4176.53,5953.40"/>
    </edge>
    <edge id=":13394882296_0" function="internal">
        <lane id=":13394882296_0_0" index="0" disallow="tram rail_urban rail rail_electric rail_fast ship container cable_car subway aircraft wheelchair scooter drone" speed="6.12" length="7.66" shape="3326.42,6262.20 3329.16,6262.42 3331.19,6262.17 3332.52,6261.45 3333.14,6260.24"/>
    </edge>
    <edge id=":13437517358_0" function="internal">
        <lane id=":13437517358_0_0" index="0" disallow="tram rail_urban rail rail_electric rail_fast ship container cable_car subway aircraft wheelchair scooter drone" speed="8.93" length="7.47" shape="3371.07,5925.72 3370.01,5926.47 3368.47,5927.00 3366.45,5927.32 3363.96,5927.41"/>
    </edge>
    <edge id=":13437517358_1" function="internal">
        <lane id=":13437517358_1_0" index="0" disallow="tram rail_urban rail rail_electric rail_fast ship container cable_car subway aircraft wheelchair scooter drone" speed="20.84" length="7.84" shape="3371.07,5925.72 3365.62,5931.36"/>
        <lane id=":13437517358_1_1" index="1" disallow="tram rail_urban rail rail_electric rail_fast ship container cable_car subway aircraft wheelchair scooter drone" speed="20.84" length="7.84" shape="3373.37,5927.95 3367.92,5933.58"/>
    </edge>
    <edge id=":13437517363_0" function="internal">
        <lane id=":13437517363_0_0" index="0" disallow="tram rail_urban rail rail_electric rail_fast ship container cable_car subway aircraft wheelchair scooter drone" speed="8.56" length="9.99" shape="3376.63,5954.24 3375.81,5950.91 3375.55,5948.20 3375.85,5946.10 3376.71,5944.61"/>
    </edge>
    <edge id=":13437517363_1" function="internal">
        <lane id=":13437517363_1_0" index="0" disallow="tram rail_urban rail rail_electric rail_fast ship container cable_car subway aircraft wheelchair scooter drone" speed="10.78" length="13.18" shape="3373.20,5955.20 3372.73,5950.63 3372.77,5946.97 3373.33,5944.23 3374.40,5942.39"/>
    </edge>
    <edge id=":13437517363_2" function="internal">
        <lane id=":13437517363_2_0" index="0" disallow="tram rail_urban rail rail_electric rail_fast ship container cable_car subway aircraft wheelchair scooter drone" speed="13.89" length="11.76" shape="3368.40,5952.98 3376.71,5944.61"/>
        <lane id=":13437517363_2_1" index="1" disallow="tram rail_urban rail rail_electric rail_fast ship container cable_car subway aircraft wheelchair scooter drone" speed="13.89" length="11.76" shape="3366.15,5950.71 3374.40,5942.39"/>
    </edge>
    <edge id=":13437559868_0" function="internal">
        <lane id=":13437559868_0_0" index="0" disallow="tram rail_urban rail rail_electric rail_fast ship container cable_car subway aircraft wheelchair scooter drone" speed="13.89" length="0.10" shape="3700.67,5505.21 3700.67,5505.21"/>
        <lane id=":13437559868_0_1" index="1" disallow="tram rail_urban rail rail_electric rail_fast ship container cable_car subway aircraft wheelchair scooter drone" speed="13.89" length="0.10" shape="3703.87,5505.31 3703.87,5505.31"/>
    </edge>
    <edge id=":13437636810_0" function="internal">
        <lane id=":13437636810_0_0" index="0" disallow="tram rail_urban rail rail_electric rail_fast ship container cable_car subway aircraft wheelchair scooter drone" speed="3.65" length="4.67" shape="3837.43,5904.78 3836.45,5903.72 3835.60,5903.45 3834.87,5903.97 3834.27,5905.28"/>
    </edge>
    <edge id=":13437654499_0" function="internal">
        <lane id=":13437654499_0_0" index="0" disallow="tram rail_urban rail rail_electric rail_fast ship container cable_car subway aircraft wheelchair scooter drone" speed="3.65" length="4.67" shape="2998.09,6057.67 2996.85,6058.41 2996.41,6059.19 2996.77,6060.01 2997.93,6060.87"/>
    </edge>
    <edge id=":13437658573_0" function="internal">
        <lane id=":13437658573_0_0" index="0" disallow="tram rail_urban rail rail_electric rail_fast ship container cable_car subway aircraft wheelchair scooter drone" speed="6.41" length="8.78" shape="3207.25,6385.08 3206.72,6387.36 3205.53,6388.92 3203.71,6389.76 3201.24,6389.87"/>
    </edge>
    <edge id=":13437658573_1" function="internal">
        <lane id=":13437658573_1_0" index="0" disallow="tram rail_urban rail rail_electric rail_fast ship container cable_car subway aircraft wheelchair scooter drone" speed="20.84" length="14.09" shape="3207.25,6385.08 3206.11,6399.12"/>
        <lane id=":13437658573_1_1" index="1" disallow="tram rail_urban rail rail_electric rail_fast ship container cable_car subway aircraft wheelchair scooter drone" speed="20.84" length="14.09" shape="3210.44,6385.34 3209.30,6399.38"/>
    </edge>
    <edge id=":13437658573_3" function="internal">
        <lane id=":13437658573_3_0" index="0" disallow="tram rail_urban rail rail_electric rail_fast ship container cable_car subway aircraft wheelchair scooter drone" speed="6.54" length="9.07" shape="3200.95,6393.06 3203.38,6393.62 3205.05,6394.82 3205.96,6396.66 3206.11,6399.12"/>
    </edge>
    <edge id=":13437658573_4" function="internal">
        <lane id=":13437658573_4_0" index="0" disallow="tram rail_urban rail rail_electric rail_fast ship container cable_car subway aircraft wheelchair scooter drone" speed="3.65" length="4.67" shape="3200.95,6393.06 3202.22,6392.37 3202.69,6391.60 3202.36,6390.77 3201.24,6389.87"/>
    </edge>
    <edge id=":13437658578_0" function="internal">
        <lane id=":13437658578_0_0" index="0" disallow="tram rail_urban rail rail_electric rail_fast ship container cable_car subway aircraft wheelchair scooter drone" speed="3.65" length="4.67" shape="3170.19,6404.55 3170.92,6405.80 3171.69,6406.25 3172.52,6405.90 3173.39,6404.75"/>
    </edge>
    <edge id=":13437658580_0" function="internal">
        <lane id=":13437658580_0_0" index="0" disallow="tram rail_urban rail rail_electric rail_fast ship container cable_car subway aircraft wheelchair scooter drone" speed="7.86" length="10.67" shape="3205.20,6408.95 3204.16,6411.15 3202.40,6412.74 3199.93,6413.72 3196.74,6414.09"/>
    </edge>
    <edge id=":13437658580_1" function="internal">
        <lane id=":13437658580_1_0" index="0" disallow="tram rail_urban rail rail_electric rail_fast ship container cable_car subway aircraft wheelchair scooter drone" speed="13.89" length="14.67" shape="3205.20,6408.95 3201.31,6423.10"/>
        <lane id=":13437658580_1_1" index="1" disallow="tram rail_urban rail rail_electric rail_fast ship container cable_car subway aircraft wheelchair scooter drone" speed="13.89" length="14.67" shape="3208.29,6409.80 3204.39,6423.95"/>
    </edge>
    <edge id=":13437658580_3" function="internal">
        <lane id=":13437658580_3_0" index="0" disallow="tram rail_urban rail rail_electric rail_fast ship container cable_car subway aircraft wheelchair scooter drone" speed="5.98" length="9.08" shape="3196.80,6417.29 3199.38,6417.61 3201.00,6418.69 3201.64,6420.52 3201.31,6423.10"/>
    </edge>
    <edge id=":13437658580_4" function="internal">
        <lane id=":13437658580_4_0" index="0" disallow="tram rail_urban rail rail_electric rail_fast ship container cable_car subway aircraft wheelchair scooter drone" speed="3.65" length="4.67" shape="3196.80,6417.29 3197.98,6416.47 3198.37,6415.66 3197.96,6414.87 3196.74,6414.09"/>
    </edge>
    <edge id=":13439123867_0" function="internal">
        <lane id=":13439123867_0_0" index="0" disallow="tram rail_urban rail rail_electric rail_fast ship container cable_car subway aircraft wheelchair scooter drone" speed="20.84" length="0.10" shape="3207.28,6384.78 3207.28,6384.77"/>
        <lane id=":13439123867_0_1" index="1" disallow="tram rail_urban rail rail_electric rail_fast ship container cable_car subway aircraft wheelchair scooter drone" speed="20.84" length="0.10" shape="3210.47,6385.04 3210.47,6385.03"/>
    </edge>
    <edge id=":13450245101_0" function="internal">
        <lane id=":13450245101_0_0" index="0" disallow="tram rail_urban rail rail_electric rail_fast ship container cable_car subway aircraft wheelchair scooter drone" speed="6.43" length="9.03" shape="3223.77,6255.90 3223.06,6258.28 3221.76,6259.84 3219.87,6260.56 3217.38,6260.46"/>
    </edge>
    <edge id=":13450245101_1" function="internal">
        <lane id=":13450245101_1_0" index="0" disallow="tram rail_urban rail rail_electric rail_fast ship container cable_car subway aircraft wheelchair scooter drone" speed="13.89" length="11.09" shape="3223.77,6255.90 3222.16,6266.87"/>
        <lane id=":13450245101_1_1" index="1" disallow="tram rail_urban rail rail_electric rail_fast ship container cable_car subway aircraft wheelchair scooter drone" speed="13.89" length="11.09" shape="3226.94,6256.36 3225.32,6267.34"/>
    </edge>
    <edge id=":13450245101_3" function="internal">
        <lane id=":13450245101_3_0" index="0" disallow="tram rail_urban rail rail_electric rail_fast ship container cable_car subway aircraft wheelchair scooter drone" speed="5.81" length="6.78" shape="3216.79,6263.61 3219.26,6264.21 3220.97,6264.95 3221.94,6265.84 3222.16,6266.87"/>
    </edge>
    <edge id=":13450245110_0" function="internal">
        <lane id=":13450245110_0_0" index="0" disallow="tram rail_urban rail rail_electric rail_fast ship container cable_car subway aircraft wheelchair scooter drone" speed="13.89" length="1.26" shape="3125.53,6286.58 3125.42,6286.94 3125.36,6287.19 3125.33,6287.44 3125.31,6287.81"/>
    </edge>
    <edge id=":13450245110_1" function="internal">
        <lane id=":13450245110_1_0" index="0" disallow="tram rail_urban rail rail_electric rail_fast ship container cable_car subway aircraft wheelchair scooter drone" speed="13.89" length="0.42" shape="3128.51,6287.97 3128.51,6287.84 3128.52,6287.76 3128.55,6287.68 3128.58,6287.56"/>
    </edge>
    <edge id=":13450245120_0" function="internal">
        <lane id=":13450245120_0_0" index="0" disallow="tram rail_urban rail rail_electric rail_fast ship container cable_car subway aircraft wheelchair scooter drone" speed="13.89" length="11.09" shape="3222.13,6267.07 3220.52,6278.05"/>
    </edge>
    <edge id=":13450245120_1" function="internal">
        <lane id=":13450245120_1_0" index="0" disallow="tram rail_urban rail rail_electric rail_fast ship container cable_car subway aircraft wheelchair scooter drone" speed="6.64" length="1.30" shape="3225.29,6267.53 3224.60,6268.49 3224.48,6268.52"/>
    </edge>
    <edge id=":13450245120_2" function="internal">
        <lane id=":13450245120_2_0" index="0" disallow="tram rail_urban rail rail_electric rail_fast ship container cable_car subway aircraft wheelchair scooter drone" speed="13.89" length="11.09" shape="3225.29,6267.53 3223.69,6278.51"/>
    </edge>
    <edge id=":13450245120_4" function="internal">
        <lane id=":13450245120_4_0" index="0" disallow="tram rail_urban rail rail_electric rail_fast ship container cable_car subway aircraft wheelchair scooter drone" speed="6.64" length="8.34" shape="3224.48,6268.52 3222.85,6268.95 3220.06,6268.93 3216.23,6268.41"/>
    </edge>
    <edge id=":13450245120_3" function="internal">