<?xml version="1.0" encoding="UTF-8"?>

<!-- generated on 2026-07-04T05:32:03.274395-05:00 by Eclipse SUMO netedit 1.25.0
-->

<additional xmlns:xsi="http://www.w3.org/2001/XMLSchema-instance" xsi:noNamespaceSchemaLocation="http://sumo.dlr.de/xsd/additional_file.xsd">
    <!-- Shapes -->
    <poly id="1014576000" geo="1" type="building" color="255,230,230" fill="1" layer="-1.00" shape="72.849053,19.134869 72.848996,19.134880 72.848974,19.134777 72.849089,19.134762 72.849091,19.134763 72.849113,19.134859 72.849053,19.134869"/>
    <poly id="1067746901" geo="1" type="building" color="255,230,230" fill="1" layer="-1.00" shape="72.842034,19.136716 72.842168,19.136781 72.842242,19.136646 72.842108,19.136580 72.842034,19.136716"/>
    <poly id="1067746902" geo="1" type="building" color="255,230,230" fill="1" layer="-1.00" shape="72.842021,19.136275 72.842034,19.136419 72.842188,19.136407 72.842175,19.136262 72.842021,19.136275"/>
    <poly id="1067746903" geo="1" type="building" color="255,230,230" fill="1" layer="-1.00" shape="72.841793,19.136288 72.841795,19.136417 72.841968,19.136415 72.841966,19.136286 72.841793,19.136288"/>
    <poly id="1067746904" geo="1" type="building" color="255,230,230" fill="1" layer="-1.00" shape="72.841558,19.136361 72.841551,19.136498 72.841609,19.136500 72.841610,19.136460 72.841695,19.136463 72.841693,19.136491 72.841741,19.136493 72.841747,19.136349 72.841688,19.136347 72.841686,19.136380 72.841621,19.136377 72.841621,19.136364 72.841558,19.136361"/>
    <poly id="1067746905" geo="1" type="building" color="255,230,230" fill="1" layer="-1.00" shape="72.841553,19.136533 72.841556,19.136639 72.841741,19.136635 72.841738,19.136528 72.841553,19.136533"/>
    <poly id="1067746906" geo="1" type="building" color="255,230,230" fill="1" layer="-1.00" shape="72.841249,19.136674 72.841423,19.136678 72.841427,19.136528 72.841253,19.136524 72.841249,19.136674"/>
    <poly id="1067746907" geo="1" type="building" color="255,230,230" fill="1" layer="-1.00" shape="72.841221,19.136765 72.841219,19.136905 72.841391,19.136908 72.841394,19.136768 72.841221,19.136765"/>
    <poly id="1111211572" geo="1" type="building" color="255,230,230" fill="1" layer="-1.00" shape="72.853339,19.142154 72.853449,19.142156 72.853453,19.141938 72.853343,19.141937 72.853339,19.142154"/>
    <poly id="1131759266" geo="1" type="water" color="181,209,209" fill="0" layer="-4.00" shape="72.847091,19.139203 72.846863,19.139682"/>
    <poly id="1131759267" geo="1" type="water" color="181,209,209" fill="0" layer="-4.00" shape="72.848215,19.137366 72.848049,19.137556 72.848118,19.137969 72.847834,19.138603 72.847217,19.138884 72.847179,19.138922 72.847091,19.139203"/>
    <poly id="1170388401" geo="1" type="building" color="255,230,230" fill="1" layer="-1.00" shape="72.849229,19.140526 72.849165,19.140540 72.849355,19.141902 72.849429,19.141880 72.849229,19.140526"/>
    <poly id="1170388402" geo="1" type="man_made" color="255,230,230" fill="1" layer="-1.00" shape="72.848891,19.139302 72.850015,19.139079 72.849953,19.138793 72.848826,19.139011 72.848891,19.139302"/>
    <poly id="1170388413" geo="1" type="building" color="255,230,230" fill="1" layer="-1.00" shape="72.838725,19.137978 72.838731,19.138298 72.839041,19.138281 72.839038,19.137962 72.838725,19.137978"/>
    <poly id="1170388414" geo="1" type="building" color="255,230,230" fill="1" layer="-1.00" shape="72.838213,19.138030 72.838209,19.138220 72.838606,19.138227 72.838610,19.138038 72.838213,19.138030"/>
    <poly id="1170388415" geo="1" type="commercial" color="209,209,204" fill="1" layer="-3.00" shape="72.839395,19.138501 72.839186,19.137931 72.838395,19.137931 72.838171,19.137952 72.838138,19.138299 72.839395,19.138501"/>
    <poly id="1170388416" geo="1" type="building" color="255,230,230" fill="1" layer="-1.00" shape="72.839393,19.135833 72.839303,19.135802 72.839210,19.135779 72.839115,19.135765 72.839020,19.135761 72.838924,19.135765 72.838829,19.135778 72.838736,19.135800 72.838655,19.135828 72.838576,19.135861 72.838502,19.135902 72.838431,19.135948 72.838365,19.136001 72.838304,19.136059 72.838382,19.136125 72.838440,19.136071 72.838503,19.136022 72.838571,19.135980 72.838643,19.135943 72.838717,19.135913 72.838795,19.135889 72.838876,19.135872 72.838959,19.135862 72.839042,19.135859 72.839125,19.135864 72.839207,19.135876 72.839288,19.135895 72.839366,19.135922 72.839393,19.135833"/>
    <poly id="1170388417" geo="1" type="leisure" color="207,245,201" fill="1" layer="-2.00" shape="72.839154,19.135983 72.839073,19.135964 72.838989,19.135955 72.838906,19.135955 72.838822,19.135964 72.838741,19.135983 72.838662,19.136010 72.838587,19.136046 72.838517,19.136089 72.838453,19.136140 72.838395,19.136198 72.838345,19.136261 72.838303,19.136330 72.838270,19.136402 72.838246,19.136478 72.838232,19.136556 72.838227,19.136635 72.838232,19.136715 72.838246,19.136793 72.838270,19.136868 72.838304,19.136941 72.838346,19.137010 72.838396,19.137073 72.838453,19.137131 72.838518,19.137182 72.838588,19.137225 72.838663,19.137261 72.838741,19.137288 72.838823,19.137306 72.838906,19.137315 72.838990,19.137315 72.839073,19.137306 72.839155,19.137288 72.839234,19.137261 72.839308,19.137225 72.839378,19.137181 72.839443,19.137130 72.839500,19.137073 72.839550,19.137009 72.839592,19.136941 72.839625,19.136868 72.839649,19.136792 72.839664,19.136714 72.839669,19.136635 72.839664,19.136556 72.839649,19.136478 72.839625,19.136402 72.839592,19.136329 72.839550,19.136261 72.839500,19.136197 72.839442,19.136140 72.839378,19.136089 72.839308,19.136045 72.839233,19.136010 72.839154,19.135983"/>
    <poly id="1170388418" geo="1" type="residential" color="235,235,227" fill="1" layer="-3.00" shape="72.841120,19.136449 72.841158,19.136348 72.841274,19.136324 72.841345,19.136255 72.842217,19.136183 72.842193,19.136487 72.842110,19.136486 72.841839,19.136881 72.841489,19.136814 72.841501,19.137333 72.841525,19.137525 72.841609,19.137596 72.841566,19.137681 72.841428,19.137634 72.841458,19.137735 72.841078,19.137829 72.841051,19.137495 72.841120,19.136449"/>
    <poly id="1170388419" geo="1" type="tourism" color="207,245,201" fill="1" layer="-2.00" shape="72.841078,19.137829 72.841021,19.137843 72.840584,19.137843 72.839750,19.137781 72.839816,19.136687 72.840203,19.136707 72.840691,19.136459 72.841120,19.136449 72.841051,19.137495 72.841078,19.137829"/>
    <poly id="123262847" geo="1" type="residential" color="235,235,227" fill="1" layer="-3.00" shape="72.856972,19.141551 72.856961,19.141017 72.857564,19.140907 72.858061,19.140747 72.859912,19.139818 72.860647,19.139573 72.862143,19.139323 72.862201,19.139683 72.862519,19.139653 72.862878,19.140407 72.862688,19.140527 72.862699,19.141092 72.862492,19.141117 72.862442,19.141393 72.862434,19.141866 72.862742,19.141877 72.862519,19.142111 72.861974,19.141911 72.860583,19.141996 72.860012,19.142111 72.859970,19.141831 72.858759,19.141816 72.858341,19.141631 72.858167,19.141486 72.858077,19.141267 72.857818,19.141307 72.857823,19.141461 72.856972,19.141551"/>
    <poly id="123262848" geo="1" type="residential" color="235,235,227" fill="1" layer="-3.00" shape="72.852612,19.139961 72.852010,19.140225 72.851629,19.140400 72.851724,19.141144 72.852206,19.141129 72.851957,19.141609 72.851650,19.142018 72.851624,19.142388 72.851777,19.143153 72.852036,19.144741 72.852126,19.145589 72.852622,19.145503 72.852490,19.144629 72.853514,19.144543 72.853607,19.144541 72.854117,19.144528 72.854068,19.143388 72.853729,19.143411 72.853689,19.142602 72.852894,19.141819 72.852911,19.141124 72.853365,19.140757 72.853679,19.140578 72.853882,19.140493 72.853566,19.140404 72.853174,19.140237 72.852612,19.139961"/>
    <poly id="123262851" geo="1" type="residential" color="235,235,227" fill="1" layer="-3.00" shape="72.849355,19.136386 72.849493,19.137510 72.849639,19.138060 72.850538,19.137991 72.850908,19.137704 72.850862,19.137385 72.849923,19.137173 72.849923,19.136374 72.849474,19.136274 72.849355,19.136386"/>
    <poly id="123262852" geo="1" type="residential" color="235,235,227" fill="1" layer="-3.00" shape="72.855364,19.141846 72.856125,19.141731 72.856480,19.141686 72.856633,19.141626 72.856628,19.141202 72.856607,19.141022 72.855750,19.140897 72.855089,19.140837 72.855211,19.141446 72.855364,19.141846"/>
    <poly id="123266929" geo="1" type="residential" color="235,235,227" fill="1" layer="-3.00" shape="72.856451,19.140613 72.857157,19.140613 72.858012,19.140270 72.859156,19.139684 72.859059,19.139280 72.858226,19.139280 72.858161,19.138563 72.857499,19.138553 72.857242,19.138099 72.856269,19.138301 72.856387,19.139199 72.856355,19.140169 72.856451,19.140613"/>
    <poly id="123269501" geo="1" type="landuse" color="194,194,130" fill="1" layer="-3.00" shape="72.850728,19.141950 72.850674,19.141616 72.850345,19.139370 72.849638,19.139471 72.849796,19.140616 72.849753,19.141022 72.849955,19.142511 72.850307,19.145107 72.850400,19.147236 72.850443,19.149749 72.850427,19.151031 72.850394,19.152472 72.850379,19.153276 72.850711,19.153013 72.851017,19.152972 72.851103,19.152607 72.851430,19.152308 72.852197,19.151543 72.852691,19.150900 72.852187,19.149876 72.852222,19.149671 72.852090,19.148999 72.852120,19.148518 72.852200,19.147867 72.851948,19.147150 72.852112,19.145862 72.851833,19.143947 72.851224,19.144059 72.851157,19.144084 72.850728,19.141950"/>
    <poly id="1249403554" geo="1" type="building" color="255,230,230" fill="1" layer="-1.00" shape="72.854801,19.142117 72.855334,19.143737 72.855524,19.143681 72.854991,19.142061 72.854801,19.142117"/>
    <poly id="1268940814" geo="1" type="building" color="255,230,230" fill="1" layer="-1.00" shape="72.854366,19.143061 72.854259,19.143098 72.854087,19.142659 72.854320,19.142578 72.854473,19.142559 72.854596,19.142606 72.854731,19.142933 72.854366,19.143061"/>
    <poly id="1284297003" geo="1" type="building" color="255,230,230" fill="1" layer="-1.00" shape="72.841244,19.138405 72.841215,19.138304 72.841308,19.138281 72.841501,19.138340 72.841244,19.138405"/>
    <poly id="1326213013" geo="1" type="building" color="255,230,230" fill="1" layer="-1.00" shape="72.848245,19.143963 72.848185,19.143822 72.848539,19.143688 72.848602,19.143837 72.848785,19.143768 72.848714,19.143601 72.848588,19.143648 72.848524,19.143497 72.848067,19.143670 72.848130,19.143817 72.848008,19.143863 72.848077,19.144027 72.848245,19.143963"/>
    <poly id="1326213014" geo="1" type="building" color="255,230,230" fill="1" layer="-1.00" shape="72.847716,19.144184 72.847678,19.144080 72.847833,19.144030 72.847871,19.144134 72.847716,19.144184"/>
    <poly id="1326213015" geo="1" type="building" color="255,230,230" fill="1" layer="-1.00" shape="72.843251,19.145356 72.843256,19.145239 72.843406,19.145246 72.843408,19.145202 72.843531,19.145207 72.843528,19.145276 72.843500,19.145335 72.843463,19.145333 72.843462,19.145365 72.843251,19.145356"/>
    <poly id="1326213020" geo="1" type="building" color="255,230,230" fill="1" layer="-1.00" shape="72.842456,19.144550 72.842673,19.144537 72.842657,19.144312 72.842440,19.144325 72.842456,19.144550"/>
    <poly id="1326213021" geo="1" type="building" color="255,230,230" fill="1" layer="-1.00" shape="72.841657,19.144628 72.841636,19.144509 72.841778,19.144487 72.841799,19.144606 72.841657,19.144628"/>
    <poly id="1326213032" geo="1" type="building" color="255,230,230" fill="1" layer="-1.00" shape="72.847190,19.142345 72.847200,19.142271 72.847093,19.142243 72.847060,19.142204 72.847073,19.142121 72.846997,19.142099 72.846969,19.142266 72.846975,19.142295 72.846991,19.142320 72.847010,19.142328 72.847035,19.142335 72.847190,19.142345"/>
    <poly id="1326213033" geo="1" type="building" color="255,230,230" fill="1" layer="-1.00" shape="72.841783,19.141364 72.841769,19.141157 72.842174,19.141161 72.842183,19.141351 72.841783,19.141364"/>
    <poly id="1326213034" geo="1" type="building" color="255,230,230" fill="1" layer="-1.00" shape="72.842579,19.141155 72.842577,19.141036 72.842762,19.141033 72.842764,19.141152 72.842579,19.141155"/>
    <poly id="1326213035" geo="1" type="building" color="255,230,230" fill="1" layer="-1.00" shape="72.843042,19.140963 72.843063,19.140835 72.843192,19.140866 72.843176,19.140984 72.843042,19.140963"/>
    <poly id="1326213036" geo="1" type="building" color="255,230,230" fill="1" layer="-1.00" shape="72.841269,19.140576 72.841260,19.140403 72.841390,19.140398 72.841389,19.140381 72.841510,19.140376 72.841509,19.140362 72.841630,19.140357 72.841629,19.140344 72.841773,19.140338 72.841783,19.140554 72.841269,19.140576"/>
    <poly id="1326213037" geo="1" type="building" color="255,230,230" fill="1" layer="-1.00" shape="72.842367,19.141281 72.842359,19.141202 72.842442,19.141195 72.842449,19.141273 72.842367,19.141281"/>
    <poly id="1326213038" geo="1" type="building" color="255,230,230" fill="1" layer="-1.00" shape="72.842452,19.141274 72.842449,19.141216 72.842567,19.141211 72.842570,19.141268 72.842452,19.141274"/>
    <poly id="1326213039" geo="1" type="building" color="255,230,230" fill="1" layer="-1.00" shape="72.842956,19.141342 72.843141,19.141365 72.843170,19.141156 72.843098,19.141147 72.843097,19.141160 72.843034,19.141153 72.843024,19.141227 72.842973,19.141220 72.842956,19.141342"/>
    <poly id="1326213040" geo="1" type="building" color="255,230,230" fill="1" layer="-1.00" shape="72.845892,19.140453 72.845910,19.140589 72.845575,19.140629 72.845557,19.140492 72.845892,19.140453"/>
    <poly id="1332919321" geo="1" type="residential" color="235,235,227" fill="1" layer="-3.00" shape="72.846109,19.143552 72.845904,19.144108 72.845605,19.144118 72.845649,19.143512 72.846109,19.143552"/>
    <poly id="1332919346" geo="1" type="residential" color="235,235,227" fill="1" layer="-3.00" shape="72.846109,19.143552 72.846028,19.143047 72.845709,19.143024 72.845649,19.143512 72.846109,19.143552"/>
    <poly id="1374682702" geo="1" type="residential" color="235,235,227" fill="1" layer="-3.00" shape="72.839349,19.147351 72.839512,19.148118 72.840334,19.147866 72.840304,19.147667 72.840920,19.147518 72.840836,19.147155 72.842412,19.146963 72.842275,19.146248 72.842538,19.146170 72.842516,19.145922 72.842831,19.145877 72.842686,19.145124 72.842713,19.144640 72.842201,19.144675 72.842145,19.144550 72.841837,19.144619 72.841964,19.145015 72.841640,19.145082 72.841616,19.145018 72.841464,19.145059 72.841433,19.144934 72.841244,19.144976 72.841206,19.145082 72.840994,19.145120 72.840933,19.145236 72.840721,19.145291 72.840709,19.145404 72.840425,19.145369 72.840410,19.145252 72.840263,19.145001 72.840541,19.144889 72.840391,19.144690 72.840022,19.144872 72.839703,19.144807 72.839375,19.144917 72.839223,19.145063 72.839125,19.145264 72.839142,19.145547 72.839255,19.145816 72.839394,19.145852 72.839373,19.146176 72.839188,19.146258 72.838860,19.145883 72.838020,19.146094 72.838009,19.146020 72.837903,19.146037 72.837829,19.145766 72.837712,19.145776 72.837606,19.145190 72.837797,19.145143 72.837725,19.144866 72.837597,19.144815 72.837375,19.144831 72.837187,19.144591 72.836835,19.144628 72.836974,19.145686 72.836896,19.145955 72.836781,19.146018 72.836438,19.148871 72.836965,19.148920 72.837119,19.148543 72.837488,19.148512 72.837742,19.148557 72.838083,19.148383 72.837975,19.148059 72.838092,19.147967 72.838025,19.147885 72.837901,19.147899 72.837860,19.147751 72.838038,19.147710 72.838064,19.147805 72.838196,19.147760 72.838185,19.147692 72.838476,19.147614 72.838556,19.147688 72.838652,19.147669 72.838652,19.147376 72.838463,19.147198 72.838402,19.147040 72.838001,19.146978 72.837749,19.146796 72.837749,19.146666 72.838203,19.146388 72.838391,19.146654 72.838841,19.146486 72.839444,19.147235 72.839349,19.147351"/>
    <poly id="1410025433" geo="1" type="residential" color="235,235,227" fill="1" layer="-3.00" shape="72.842986,19.138169 72.843081,19.137819 72.843079,19.137607 72.842950,19.137575 72.842934,19.137773 72.842631,19.137678 72.842448,19.137946 72.842986,19.138169"/>
    <poly id="1410837121" geo="1" type="commercial" color="209,209,204" fill="1" layer="-3.00" shape="72.851377,19.138797 72.852585,19.138949 72.852629,19.138939 72.852641,19.138916 72.852640,19.138584 72.851335,19.138490 72.851377,19.138797"/>
    <poly id="1410846494" geo="1" type="residential" color="235,235,227" fill="1" layer="-3.00" shape="72.849004,19.140605 72.848812,19.140752 72.848840,19.140965 72.848920,19.141582 72.848961,19.141868 72.848435,19.142012 72.848140,19.142099 72.848168,19.142257 72.848079,19.142275 72.847992,19.142007 72.847817,19.142061 72.847611,19.141415 72.847817,19.141336 72.848007,19.141158 72.848583,19.140772 72.849013,19.140490 72.849004,19.140605"/>
    <poly id="1411073372" geo="1" type="residential" color="235,235,227" fill="1" layer="-3.00" shape="72.846094,19.136185 72.846171,19.136238 72.846250,19.136146 72.846412,19.136262 72.846561,19.136042 72.846576,19.135946 72.846464,19.135882 72.846094,19.136185"/>
    <poly id="1411773407" geo="1" type="residential" color="235,235,227" fill="1" layer="-3.00" shape="72.842377,19.142581 72.842916,19.142663 72.843004,19.142153 72.842780,19.142115 72.842750,19.142254 72.842535,19.142213 72.842377,19.142581"/>
    <poly id="1412913123" geo="1" type="residential" color="235,235,227" fill="1" layer="-3.00" shape="72.859635,19.138604 72.859202,19.138727 72.859336,19.139180 72.859803,19.138975 72.859635,19.138604"/>
    <poly id="1413398971" geo="1" type="residential" color="235,235,227" fill="1" layer="-3.00" shape="72.845162,19.139908 72.845284,19.140297 72.845347,19.140334 72.845545,19.140371 72.845711,19.140321 72.845863,19.140234 72.845887,19.140033 72.845792,19.139848 72.845162,19.139908"/>
    <poly id="1413467842" geo="1" type="residential" color="235,235,227" fill="1" layer="-3.00" shape="72.842309,19.136865 72.841965,19.137482 72.841897,19.137647 72.842448,19.137946 72.842631,19.137678 72.842934,19.137773 72.842950,19.137575 72.842759,19.137471 72.842309,19.136865"/>
    <poly id="1443028725" geo="1" type="building" color="255,230,230" fill="1" layer="-1.00" shape="72.848111,19.136066 72.848219,19.136068 72.848215,19.136232 72.848106,19.136229 72.848111,19.136066"/>
    <poly id="1443028725#1" geo="1" type="tourism" color="207,245,201" fill="1" layer="-2.00" shape="72.848111,19.136066 72.848219,19.136068 72.848215,19.136232 72.848106,19.136229 72.848111,19.136066"/>
    <poly id="1466371816" geo="1" type="building" color="255,230,230" fill="1" layer="-1.00" shape="72.858371,19.139182 72.858380,19.139320 72.858765,19.139349 72.858773,19.139267 72.858728,19.139266 72.858731,19.139243 72.858461,19.139226 72.858455,19.139175 72.858371,19.139182"/>
    <poly id="1466371817" geo="1" type="building" color="255,230,230" fill="1" layer="-1.00" shape="72.858359,19.138977 72.858372,19.139137 72.858452,19.139139 72.858454,19.139063 72.858571,19.139035 72.858567,19.139015 72.858745,19.138985 72.858732,19.138905 72.858685,19.138913 72.858680,19.138891 72.858616,19.138906 72.858624,19.138928 72.858593,19.138936 72.858592,19.138927 72.858551,19.138935 72.858554,19.138945 72.858500,19.138958 72.858497,19.138949 72.858464,19.138956 72.858468,19.138970 72.858425,19.138980 72.858430,19.139005 72.858407,19.139009 72.858407,19.138994 72.858401,19.138994 72.858400,19.138975 72.858359,19.138977"/>
    <poly id="1466779992" geo="1" type="amenity" color="237,199,199" fill="1" layer="-1.00" shape="72.849257,19.139451 72.849593,19.141885 72.849443,19.141903 72.849108,19.139469 72.849257,19.139451"/>
    <poly id="1466779992#1" geo="1" type="building" color="255,230,230" fill="1" layer="-1.00" shape="72.849257,19.139451 72.849593,19.141885 72.849443,19.141903 72.849108,19.139469 72.849257,19.139451"/>
    <poly id="1466779993" geo="1" type="tourism" color="207,245,201" fill="1" layer="-2.00" shape="72.847600,19.142390 72.847548,19.142190 72.847220,19.142214 72.847212,19.142422 72.847429,19.142426 72.847600,19.142390"/>
    <poly id="1479804068" geo="1" type="building" color="255,230,230" fill="1" layer="-1.00" shape="72.846494,19.136523 72.846543,19.136562 72.846533,19.136573 72.846692,19.136698 72.846710,19.136677 72.846747,19.136706 72.846833,19.136608 72.846818,19.136596 72.846808,19.136608 72.846795,19.136597 72.846774,19.136621 72.846761,19.136611 72.846754,19.136620 72.846650,19.136540 72.846641,19.136550 72.846588,19.136509 72.846580,19.136518 72.846544,19.136490 72.846535,19.136500 72.846523,19.136491 72.846494,19.136523"/>
    <poly id="1491199260" geo="1" type="building" color="255,230,230" fill="1" layer="-1.00" shape="72.841917,19.145463 72.841909,19.145432 72.841927,19.145428 72.841876,19.145232 72.841881,19.145201 72.841861,19.145161 72.841983,19.145142 72.842035,19.145445 72.841983,19.145453 72.841988,19.145477 72.841921,19.145487 72.841917,19.145463"/>
    <poly id="1491199468" geo="1" type="building" color="255,230,230" fill="1" layer="-1.00" shape="72.841174,19.146320 72.841660,19.146221 72.841633,19.146103 72.841390,19.146152 72.841399,19.146192 72.841156,19.146241 72.841174,19.146320"/>
    <poly id="1491199570" geo="1" type="building" color="255,230,230" fill="1" layer="-1.00" shape="72.841372,19.146738 72.841518,19.146717 72.841489,19.146543 72.841343,19.146565 72.841372,19.146738"/>
    <poly id="1491199713" geo="1" type="building" color="255,230,230" fill="1" layer="-1.00" shape="72.840956,19.146940 72.841056,19.146928 72.841033,19.146757 72.840933,19.146769 72.840956,19.146940"/>
    <poly id="1491200038" geo="1" type="building" color="255,230,230" fill="1" layer="-1.00" shape="72.840935,19.147091 72.841060,19.147075 72.841057,19.147053 72.841143,19.147042 72.841130,19.146952 72.840919,19.146979 72.840935,19.147091"/>
    <poly id="1491200134" geo="1" type="building" color="255,230,230" fill="1" layer="-1.00" shape="72.840207,19.147634 72.840266,19.147613 72.840239,19.147545 72.840180,19.147566 72.840207,19.147634"/>
    <poly id="1491200361" geo="1" type="building" color="255,230,230" fill="1" layer="-1.00" shape="72.840665,19.147126 72.840770,19.147113 72.840751,19.146976 72.840646,19.146989 72.840665,19.147126"/>
    <poly id="1491200373" geo="1" type="building" color="255,230,230" fill="1" layer="-1.00" shape="72.840459,19.146031 72.840512,19.146052 72.840557,19.145948 72.840504,19.145927 72.840459,19.146031"/>
    <poly id="1491200403" geo="1" type="building" color="255,230,230" fill="1" layer="-1.00" shape="72.840298,19.145973 72.840394,19.146011 72.840435,19.145918 72.840339,19.145880 72.840298,19.145973"/>
    <poly id="1491200411" geo="1" type="building" color="255,230,230" fill="1" layer="-1.00" shape="72.840118,19.145900 72.840266,19.145959 72.840344,19.145786 72.840196,19.145726 72.840118,19.145900"/>
    <poly id="1491200461" geo="1" type="building" color="255,230,230" fill="1" layer="-1.00" shape="72.839989,19.145843 72.840063,19.145869 72.840095,19.145788 72.840124,19.145798 72.840149,19.145736 72.840046,19.145699 72.839989,19.145843"/>
    <poly id="1491200476" geo="1" type="building" color="255,230,230" fill="1" layer="-1.00" shape="72.839726,19.145885 72.839781,19.145909 72.839828,19.145812 72.839774,19.145788 72.839726,19.145885"/>
    <poly id="1491200575" geo="1" type="building" color="255,230,230" fill="1" layer="-1.00" shape="72.839755,19.145978 72.839847,19.146031 72.839903,19.145944 72.839811,19.145891 72.839755,19.145978"/>
    <poly id="1491200941" geo="1" type="building" color="255,230,230" fill="1" layer="-1.00" shape="72.839862,19.146035 72.839947,19.146077 72.839992,19.145996 72.839907,19.145954 72.839862,19.146035"/>
    <poly id="1491200951" geo="1" type="building" color="255,230,230" fill="1" layer="-1.00" shape="72.839955,19.146083 72.840073,19.146138 72.840099,19.146089 72.839981,19.146034 72.839955,19.146083"/>
    <poly id="1491201113" geo="1" type="building" color="255,230,230" fill="1" layer="-1.00" shape="72.840105,19.146179 72.840207,19.146210 72.840276,19.146010 72.840175,19.145979 72.840105,19.146179"/>
    <poly id="1491201725" geo="1" type="building" color="255,230,230" fill="1" layer="-1.00" shape="72.839944,19.146572 72.840029,19.146537 72.839960,19.146386 72.839875,19.146421 72.839944,19.146572"/>
    <poly id="1493138163" geo="1" type="building" color="255,230,230" fill="1" layer="-1.00" shape="72.860391,19.141961 72.860544,19.141930 72.860526,19.141836 72.860371,19.141857 72.860391,19.141961"/>
    <poly id="1493139383" geo="1" type="building" color="255,230,230" fill="1" layer="-1.00" shape="72.860550,19.141931 72.860578,19.141927 72.860606,19.141922 72.860633,19.141918 72.860661,19.141914 72.860658,19.141891 72.860655,19.141869 72.860652,19.141846 72.860649,19.141823 72.860620,19.141827 72.860591,19.141831 72.860562,19.141834 72.860533,19.141838 72.860537,19.141861 72.860542,19.141884 72.860546,19.141908 72.860550,19.141931"/>
    <poly id="1493139896" geo="1" type="building" color="255,230,230" fill="1" layer="-1.00" shape="72.860521,19.141827 72.860545,19.141825 72.860568,19.141822 72.860591,19.141819 72.860615,19.141816 72.860613,19.141800 72.860634,19.141793 72.860627,19.141759 72.860620,19.141725 72.860606,19.141728 72.860603,19.141702 72.860600,19.141677 72.860572,19.141680 72.860544,19.141682 72.860546,19.141701 72.860548,19.141720 72.860525,19.141724 72.860501,19.141728 72.860506,19.141753 72.860511,19.141778 72.860516,19.141803 72.860521,19.141827"/>
    <poly id="1493140787" geo="1" type="building" color="255,230,230" fill="1" layer="-1.00" shape="72.860423,19.141830 72.860444,19.141826 72.860464,19.141823 72.860484,19.141820 72.860505,19.141817 72.860502,19.141804 72.860499,19.141790 72.860497,19.141777 72.860494,19.141764 72.860491,19.141751 72.860489,19.141738 72.860486,19.141724 72.860484,19.141711 72.860464,19.141713 72.860445,19.141716 72.860425,19.141718 72.860406,19.141720 72.860408,19.141734 72.860410,19.141748 72.860412,19.141761 72.860415,19.141775 72.860417,19.141788 72.860419,19.141802 72.860421,19.141816 72.860423,19.141830"/>
    <poly id="1493141006" geo="1" type="building" color="255,230,230" fill="1" layer="-1.00" shape="72.860333,19.141850 72.860340,19.141848 72.860351,19.141845 72.860359,19.141842 72.860370,19.141839 72.860378,19.141837 72.860388,19.141834 72.860399,19.141832 72.860407,19.141829 72.860405,19.141816 72.860404,19.141803 72.860402,19.141789 72.860400,19.141776 72.860399,19.141762 72.860397,19.141749 72.860395,19.141735 72.860394,19.141722 72.860383,19.141724 72.860373,19.141726 72.860362,19.141728 72.860352,19.141730 72.860342,19.141732 72.860331,19.141734 72.860321,19.141736 72.860310,19.141738 72.860313,19.141752 72.860316,19.141766 72.860319,19.141780 72.860321,19.141794 72.860324,19.141808 72.860327,19.141822 72.860330,19.141836 72.860333,19.141850"/>
    <poly id="1493141245" geo="1" type="building" color="255,230,230" fill="1" layer="-1.00" shape="72.860149,19.141857 72.860174,19.141853 72.860198,19.141849 72.860223,19.141844 72.860247,19.141840 72.860245,19.141824 72.860243,19.141807 72.860241,19.141790 72.860239,19.141774 72.860214,19.141778 72.860188,19.141784 72.860163,19.141788 72.860137,19.141793 72.860140,19.141810 72.860143,19.141825 72.860146,19.141841 72.860149,19.141857"/>
    <poly id="1493142004" geo="1" type="building" color="255,230,230" fill="1" layer="-1.00" shape="72.860442,19.141704 72.860467,19.141704 72.860490,19.141704 72.860514,19.141705 72.860517,19.141683 72.860536,19.141683 72.860536,19.141651 72.860536,19.141557 72.860489,19.141564 72.860484,19.141608 72.860441,19.141611 72.860441,19.141634 72.860442,19.141657 72.860442,19.141680 72.860442,19.141704"/>
    <poly id="151829675" geo="1" type="residential" color="235,235,227" fill="1" layer="-3.00" shape="72.841661,19.137830 72.841729,19.138250 72.841819,19.138125 72.842068,19.138247 72.842211,19.137987 72.841868,19.137819 72.841661,19.137830"/>
    <poly id="151832200" geo="1" type="landuse" color="194,194,130" fill="1" layer="-3.00" shape="72.849655,19.138780 72.849545,19.138116 72.849454,19.137597 72.849054,19.135021 72.848544,19.134908 72.849015,19.138893 72.849111,19.139540 72.849188,19.140336 72.849135,19.140470 72.849328,19.141960 72.849438,19.141940 72.849529,19.142574 72.849955,19.142511 72.849753,19.141022 72.849796,19.140616 72.849638,19.139471 72.849631,19.139181 72.849655,19.138780"/>
    <poly id="257491059" geo="1" type="industrial" color="209,209,204" fill="1" layer="-3.00" shape="72.843203,19.140802 72.842192,19.140150 72.842033,19.140221 72.841801,19.140290 72.841053,19.140402 72.840997,19.140567 72.841070,19.141082 72.841303,19.141784 72.841952,19.141643 72.842353,19.141383 72.842656,19.141336 72.843002,19.141443 72.843161,19.141334 72.843203,19.140802"/>
    <poly id="257491062" geo="1" type="tourism" color="207,245,201" fill="1" layer="-2.00" shape="72.839209,19.139549 72.839231,19.139850 72.839038,19.139956 72.839064,19.140140 72.839581,19.139963 72.839734,19.140248 72.840019,19.140140 72.839943,19.139300 72.839612,19.139355 72.839629,19.139474 72.839209,19.139549"/>
    <poly id="352972771" geo="1" type="building" color="255,230,230" fill="1" layer="-1.00" shape="72.838899,19.145185 72.839058,19.145201 72.839065,19.145142 72.838999,19.145135 72.839001,19.145111 72.838913,19.145102 72.838911,19.145117 72.838926,19.145118 72.838922,19.145155 72.838903,19.145153 72.838899,19.145185"/>
    <poly id="352972773" geo="1" type="building" color="255,230,230" fill="1" layer="-1.00" shape="72.838841,19.145320 72.838880,19.145352 72.838889,19.145342 72.838921,19.145368 72.838915,19.145376 72.838948,19.145402 72.838956,19.145393 72.838974,19.145408 72.838995,19.145384 72.838983,19.145375 72.839047,19.145302 72.839016,19.145278 72.838996,19.145300 72.838976,19.145285 72.838970,19.145291 72.838954,19.145279 72.838938,19.145297 72.838894,19.145261 72.838873,19.145285 72.838883,19.145293 72.838870,19.145307 72.838860,19.145299 72.838841,19.145320"/>